585
Atoms. Timestep: 1790001
Si 5.80728 -3.91963 -8.84737
O 5.69325 -3.53061 -10.4816
H 6.26508 -4.02811 -11.0543
Si 9.002 2.39455 -9.70725
O 9.69918 2.36372 -11.2094
H 9.65025 1.54361 -11.6864
Si 7.21199 -5.71502 10.5152
O 7.28322 -5.95703 12.1891
H 7.95857 -6.58936 12.4049
Si 8.1727 -2.65742 10.3153
O 8.76167 -2.64234 11.8974
H 8.18857 -3.10832 12.4949
Si -9.22583 1.52497 -8.92279
O -9.69105 0.315519 -9.99694
H -9.2358 0.278963 -10.83
Si 8.87907 -4.52681 -8.51117
O 9.27894 -4.68898 -10.1742
H 10.0419 -5.21949 -10.3715
Si 3.9238 -9.45837 7.60188
Si -7.59774 4.98841 6.49495
Si -2.39814 4.455 7.03113
Si -6.10954 5.59491 -1.91502
Si 0.0806615 -0.593458 -2.62372
Si 3.35955 -5.36033 -7.68285
Si 0.77556 -3.60672 -7.31232
Si -6.06206 3.55621 -4.44765
Si -2.82786 -6.1568 -3.23069
Si 3.56079 0.157325 8.27029
Si 7.49127 7.53419 1.32845
Si -6.42341 9.99854 -4.64261
Si 0.43261 9.65667 4.6617
Si -3.76957 0.96606 -9.27286
Si -9.78439 -6.03616 6.54493
Si 4.44048 5.96518 -4.3456
Si -5.27442 -9.9188 -1.86845
Si -3.27092 -3.2253 -4.21444
Si 2.88188 1.61947 3.5024
Si -6.92961 0.227681 -1.44259
Si -6.98391 -0.888463 2.31412
Si 4.63893 2.13168 6.05418
Si -9.57257 6.05565 2.66208
Si 1.75389 -3.17793 4.52818
Si 1.00789 4.59226 -2.03858
Si 6.50712 2.98477 -0.916046
Si 10.405 3.34888 3.48433
Si 5.57977 -6.34372 3.64338
Si 1.79622 9.40045 7.61022
Si -4.65225 -2.77112 2.88161
Si -7.13844 9.58167 4.82598
Si 1.47459 9.36112 -5.08641
Si -3.38693 -4.48133 -8.99805
Si -0.121021 -9.58977 8.61661
Si 9.778 -4.05859 0.746078
Si -8.31722 7.72167 -1.52679
Si 7.24474 0.272889 0.387991
Si 7.7135 0.361621 -7.71216
Si 10.0294 -3.68808 5.13187
Si -5.67307 -6.73131 -2.29085
Si 6.70671 10.384 0.527613
Si 5.35959 -9.40881 -5.13457
Si -6.35991 2.46666 -8.68161
Si 4.33049 7.44585 4.80586
Si 2.6054 0.37018 -7.94828
Si -7.38067 4.78302 -7.03277
Si -7.89302 -7.433 -7.40045
Si 9.20744 0.80117 7.42759
Si -4.52772 9.22135 -8.58913
Si 1.09197 4.03191 3.50923
Si -7.37769 -10.2727 7.55707
Si -1.21357 -10.3829 -4.88136
Si 9.81888 -6.18923 -3.80349
Si -6.61434 4.00548 0.841871
Si -5.0534 0.00105202 7.75612
Si 3.54676 6.05912 -7.37038
Si 5.08441 -1.36018 -7.17918
Si 5.73398 10.2191 -7.83799
Si 0.682471 4.11978 6.62582
Si -10.4568 3.89766 -7.39042
Si -4.9958 8.4349 2.99814
Si 9.18889 -7.11505 0.148314
Si -3.2552 -8.88637 5.68294
Si 10.0529 -7.04707 -6.92193
Si 0.720675 -4.76277 6.94675
Si -2.06513 0.659189 4.90821
Si 0.781669 -0.285382 4.95467
Si -3.64223 3.20145 4.29526
Si -3.48726 7.39013 7.14399
Si -2.40477 10.0436 -1.94899
Si -3.20579 -2.35045 -6.86044
Si -7.82233 0.00939324 4.988
Si -0.721075 2.24783 -3.48499
Si -6.6919 7.84752 7.05835
Si 9.87646 -2.9695 -3.93841
Si 6.66908 -0.574477 8.79607
Si -1.79509 8.4504 -7.16265
Si 7.97615 5.36416 6.26963
Si 1.84336 -5.75764 -2.73381
Si -3.00429 10.2867 8.21568
Si 1.12094 7.88146 -7.67866
Si -10.2673 -8.9842 7.02632
Si 6.03758 -3.15129 6.9518
Si 4.32417 -2.15928 -4.10465
Si -5.96485 7.41349 -6.25289
Si -3.03158 3.24493 -5.27933
Si -6.22343 -5.12601 3.6191
Si 7.70051 -4.09836 3.09866
Si 10.1275 6.60755 -0.120534
Si 2.16034 7.29512 -2.87401
Si 7.53928 3.60977 3.73163
Si 6.32333 7.21648 -8.04083
Si -3.28923 -8.68288 2.61038
Si 7.43713 6.89098 -5.04385
Si 3.94177 3.4137 -2.69769
Si 3.28401 -4.10556 -0.555517
Si -4.46254 -6.68448 7.47532
Si 9.99101 0.84301 1.62827
Si -6.27909 -8.01393 2.34587
Si 8.78377 -10.3786 4.9308
Si -9.02434 2.28555 -0.354554
Si -0.605708 -6.78162 -1.17631
Si 1.0626 2.09727 -6.18603
Si -2.44982 -4.65544 6.1666
Si 2.70122 10.4 -7.67548
Si 5.78759 4.78203 1.56105
Si -6.16139 2.39579 5.86867
Si -5.30571 -9.19881 -7.04633
Si -7.49711 -6.86029 -0.186621
Si -9.74469 -8.21654 -1.91125
Si -0.264687 -8.52394 5.6617
Si -6.8415 -5.95159 -5.0985
Si 7.96976 4.89746 -8.5636
Si -7.91942 -3.1992 -3.8655
Si 1.89287 -7.32811 8.38028
Si -3.15995 7.03511 -2.2139
Si 9.04425 7.54466 4.22463
Si -6.87416 0.679626 -4.36198
Si -2.24864 -5.69137 3.11945
Si 6.70459 -9.96556 -2.52167
Si 9.0165 -6.99009 8.33551
Si -6.94534 -2.88591 -0.871471
Si 3.05116 -4.94174 2.48498
Si -0.857028 6.06304 -0.14259
Si 5.5713 10.4195 5.15521
Si -8.33895 -4.44338 1.52092
Si -5.57434 0.120789 -6.90914
Si 7.86158 -9.24495 -6.59534
Si 4.74049 -7.13316 9.05531
Si -2.45502 -1.61951 -9.76131
Si -10.5041 3.5781 6.62838
Si 1.47101 -7.65953 -7.73987
Si 7.22515 -6.80973 -2.13039
Si -9.79766 -1.34994 3.23639
Si 2.64256 6.57444 7.10872
Si 8.4043 -2.20164 -1.29392
Si 4.65542 -0.323233 2.10726
Si 7.40074 0.915449 4.96279
Si 8.82934 9.66495 -4.44583
Si -9.24822 10.0424 -3.57202
Si 0.0621404 -0.794592 -8.65426
Si 3.13709 0.401433 -2.49283
Si 5.27637 5.24924 6.74454
Si 4.62899 -9.20833 2.4459
Si 1.7587 10.4585 1.90477
Si 1.53272 7.82125 0.210884
Si 3.07526 6.09524 2.30445
Si 6.17455 -1.71007 4.17435
Si -2.26664 1.47863 7.99966
Si -8.57254 -10.1039 2.44933
Si -2.25455 7.8288 4.18413
Si -2.84874 -7.78733 -5.81602
Si 0.787058 -6.08306 4.18055
Si -1.82349 5.05528 2.62126
Si 9.52234 3.87353 -1.6518
Si -5.91968 -2.73001 -5.96584
Si -6.04276 -5.10536 -7.78884
Si -5.25568 -8.86495 9.47822
Si -0.203958 -1.35558 0.472752
Si -1.01205 -9.57299 0.550584
Si -6.792 5.8862 3.37512
Si -7.53176 -1.80123 7.61807
Si 3.19752 -7.05837 -5.24846
Si 6.422 -6.16956 6.69436
Si -5.327 1.20041 0.782992
Si -1.53191 -4.19761 0.528751
Si -1.16207 -6.08588 -7.84793
Si 3.63292 3.05803 -6.99806
Si -6.86235 -4.77103 6.68661
Si -3.72922 -2.74244 -1.19237
Si -3.8472 -1.91183 5.67574
Si -1.4567 1.79766 -7.61722
Si 3.08291 -2.86404 7.2139
Si 5.91156 -3.98299 -2.1188
Si 2.7664 -1.17659 0.164807
Si 0.744724 1.09385 7.94172
Si 9.72439 -1.93056 -6.81601
Si -6.57281 9.34658 0.450781
Si -3.14714 6.31049 -5.29832
Si 8.89136 4.17528 -4.73673
Si 9.32405 -9.34378 2.12575
Si 10.3524 -2.06622 7.96821
Si 6.71952 3.00962 -6.29833
Si -3.04646 -0.809779 1.12197
Si 1.2037 -3.06095 -4.19641
Si -8.56244 -0.321 -6.546
O -6.50761 4.01631 -8.22414
O -0.231175 -0.996083 -1.10627
O -1.96753 6.37758 -1.30541
O -9.47048 -7.52187 -7.52424
O 5.11803 -6.50447 7.54776
O -2.22595 -9.32645 1.56734
O 9.6414 -9.70582 6.10362
O 0.0701251 3.38836 -2.61016
O 8.49776 1.00786 1.06421
O 7.12963 -10.4339 5.05539
O 10.0013 -2.93773 6.62034
O 9.34065 -2.54003 9.17833
O 1.94637 9.27014 0.7654
O -9.70898 -7.6151 6.34689
O -3.01449 6.64556 -3.77502
O -5.75549 -9.9905 -5.66488
O 6.72274 -1.90266 7.79053
O -1.51645 9.58693 -6.06599
O -3.35016 -9.23196 4.1071
O 9.70137 -4.5597 -3.75049
O -7.23201 8.22923 5.61286
O -0.0321452 -8.98253 7.09358
O -6.92678 -10.3004 5.94904
O -9.84462 -3.87622 1.49723
O -0.829277 4.65261 6.69338
O -5.51218 1.33477 6.90905
O 5.99128 1.34203 5.78363
O 2.79579 -6.52759 -3.79266
O -8.11807 6.71239 2.85343
O -6.44454 -0.76431 8.38766
O 5.12041 2.75058 -6.46046
O -3.05328 -10.1489 6.68171
O -5.71021 10.3338 -3.18643
O 6.63974 -2.84427 3.11721
O -8.45654 -7.81672 -1.01664
O -8.32874 -5.35561 6.89538
O -2.19569 -5.55699 -8.93707
O 8.47593 -6.60058 -3.06745
O -10.0398 -7.0117 -2.96425
O 4.38781 -5.24725 3.37472
O 1.90161 -9.23515 -7.88693
O -6.12465 -6.68829 3.24115
O -3.60305 0.604293 8.37388
O 3.70333 4.48547 -7.66109
O 5.83678 -6.45358 9.95783
O -7.62141 -8.83858 2.70955
O 6.34273 -0.393367 -7.57409
O 6.71424 -4.58071 6.85416
O -1.72517 -6.712 -2.28096
O 3.81247 6.19897 -5.806
O 2.81251 -2.91206 5.64188
O 1.93183 7.67718 -1.32215
O -10.4969 2.65406 -8.66755
O -1.65562 5.45469 1.09485
O 2.01299 5.23046 3.18161
O 9.60706 3.98604 -3.29995
O 0.977349 3.79406 5.11301
O 3.66194 -5.78713 -6.13178
O 3.13516 -4.7398 0.954991
O -9.79304 7.28645 -0.953735
O -5.6153 -8.77618 10.9564
O 5.97643 6.42543 -4.41594
O -7.29144 6.31929 7.26218
O 2.06113 0.683368 8.80894
O 0.152226 2.06839 -4.83156
O -7.58523 -4.62108 2.94368
O -6.60742 4.78434 2.23371
O 1.26926 9.47593 6.01855
O 1.56835 0.158791 -2.64473
O 10.1269 2.21053 7.46893
O -2.25837 7.24249 -6.20963
O -2.69203 -4.68342 -3.88856
O -8.2481 0.300466 -5.08943
O -2.65721 -5.11845 4.5884
O 9.75581 -5.61251 0.248385
O -9.1223 4.46861 6.76305
O -6.79487 -0.380864 3.82214
O 1.7 5.31894 7.08374
O 7.57088 1.70667 -6.77422
O -6.72257 -0.0754328 -2.97899
O 5.91218 -6.60225 5.18874
O 8.96105 3.96461 3.05201
O -2.86779 -0.753563 5.02858
O -9.47856 -2.88859 -3.86863
O -5.98135 4.56776 -3.17535
O -10.169 6.06094 1.20062
O -4.27189 -10.1273 8.98756
O -7.08759 -1.22597 -0.765765
O 1.97087 9.12407 -8.28055
O 8.1232 3.69554 -9.57619
O -3.35656 -0.344734 -10.1834
O 4.52825 -3.50102 7.55003
O 4.04069 -0.769836 -3.26343
O 7.99017 10.4379 -3.27634
O -4.58701 3.17284 -4.94481
O -9.56905 -9.54088 -2.81853
O 3.22443 1.88465 -7.96216
O 6.88728 -5.5064 3.09968
O 10.4426 3.22563 5.09474
O -1.40777 -0.578294 1.16089
O 7.53866 4.28491 5.16875
O -3.32532 -2.55477 -2.72475
O -2.12851 1.21359 6.41334
O 9.1978 -7.89597 1.54057
O -2.93816 -7.06344 2.6661
O -6.90798 4.15882 -5.66178
O 2.73171 -5.20136 -1.55936
O 1.46797 -0.0514628 -8.92266
O 9.20636 9.03192 4.69716
O 6.67181 8.86158 0.943946
O -1.98663 -6.63895 -6.58676
O 9.34239 -2.45239 -5.35974
O -0.451471 8.03897 -8.03199
O -7.81079 10.1196 1.19558
O -4.81886 8.99178 -10.0742
O -9.57582 4.46945 3.14087
O 1.7354 2.61819 2.9687
O -1.77588 10.2842 -3.3816
O -6.68784 -8.47391 -7.53572
O 2.7329 -8.3102 7.3477
O 3.1501 -6.78982 9.27827
O 10.1056 -0.519639 7.58903
O -4.68083 6.3684 -1.81589
O 7.436 3.48189 -4.92449
O -1.68309 -9.93198 8.80625
O 3.07751 -9.55687 2.07524
O 1.09505 -4.73287 5.14703
O 10.0483 -5.94194 7.65692
O 5.11964 8.82006 5.21596
O 0.359127 -9.91211 1.39919
O 6.57084 1.40145 -0.661849
O 7.08071 7.022 -6.62578
O 5.36284 -3.13387 -3.40649
O -7.39927 6.57252 -2.13953
O 0.702018 10.0933 8.60541
O 6.27019 3.69054 0.478403
O -8.95467 -9.85063 7.42975
O 1.97313 -5.98626 3.11353
O -5.59125 6.98933 3.35862
O 10.0043 -6.61238 -5.35587
O -10.0723 -9.76195 2.15127
O 7.17665 -1.40817 10.0993
O -2.75332 4.7723 -5.583
O -6.57095 -7.70279 0.760706
O 5.483 10.2738 -6.19747
O -0.406625 4.25113 2.97428
O -6.37308 4.87157 -0.505258
O -3.41742 -2.01928 2.15173
O -0.861139 8.68294 4.46255
O -0.897648 -1.2449 -9.90837
O 4.20644 10.4955 -8.31902
O 8.43346 -6.43883 9.75528
O -3.12023 4.1995 3.08959
O 9.43854 -5.8012 -7.778
O -4.5232 -7.53738 8.80178
O -0.0262301 7.37593 0.284158
O 1.12343 8.15601 -6.09092
O -9.03786 -2.09669 8.15182
O -1.89324 6.43828 3.45265
O 3.83113 1.02682 2.2929
O 6.04707 -0.128015 1.34352
O 3.70995 -0.761242 -7.75651
O -5.58849 0.312415 -5.30473
O -4.85077 -8.77472 2.29303
O 4.84551 6.745 -8.07128
O 7.8774 -0.90457 -0.570399
O 5.14145 0.0296752 8.91838
O 4.88987 -10.0171 3.82139
O 2.53094 3.94413 -1.87868
O 2.32895 3.0768 -5.99666
O 4.11086 6.09741 7.53003
O 9.79317 -8.37599 8.23119
O -5.45816 2.8269 0.983842
O 8.03403 3.44565 -1.3196
O 6.7207 -8.65021 -5.52345
O -3.27249 -5.66214 7.09889
O -7.80774 2.05061 -9.32142
O 0.390064 10.4662 -4.78468
O 2.91867 7.18229 5.62151
O -9.90358 1.21906 0.546748
O 1.10825 -6.09857 7.63634
O 3.31245 -0.0873781 -0.888281
O 2.5519 -6.56146 -8.27767
O -6.71498 3.69759 6.69579
O 9.65524 5.23869 -0.915092
O -4.68831 -1.17391 6.79206
O -10.3394 -5.10089 5.37786
O -7.61537 -3.57738 0.404282
O 8.56815 -10.4407 -5.74341
O -8.016 3.23721 0.468232
O -3.00167 8.57307 -1.94413
O 2.23072 -4.17242 -7.66022
O 1.86626 -7.41291 -6.14253
O -6.56775 -9.28496 8.45955
O -9.22624 -0.294609 4.31019
O -6.31282 8.45184 -5.10418
O 0.850175 -8.29854 9.15077
O -4.15652 -6.09938 -2.25431
O -7.44051 -3.27128 -2.36737
O -6.57601 0.466056 1.43031
O -1.45184 10.4186 -0.665243
O 4.89974 3.65866 6.56819
O 4.69948 -8.67079 8.72706
O 6.71742 -8.30911 -2.39283
O 2.33965 -3.60964 3.1125
O 9.28386 4.60181 6.93645
O 8.08146 8.27739 -4.6004
O 8.95621 -8.19787 -6.96157
O -7.50559 1.58005 5.33087
O 4.92007 -9.8937 6.39916
O -9.11954 0.919726 -7.46853
O 5.34065 3.46333 -1.87746
O -1.79967 -8.0684 5.675
O -3.21097 -7.1398 -4.41429
O -4.075 -8.20312 -6.74122
O -2.6011 3.13333 7.89714
O 3.80246 1.30303 7.13152
O 5.08791 -7.67392 2.88263
O -5.98456 10.2898 -0.709367
O 3.77615 2.23242 4.62789
O 7.86908 0.511949 8.36273
O -7.12016 -2.33018 -5.02609
O -2.91937 1.82466 4.19279
O 1.09555 -4.45888 -3.32564
O -5.13107 7.62181 7.18901
O 7.24144 -0.567469 4.43659
O 5.4824 -2.71888 -7.90219
O -6.4244 -4.73593 5.15496
O -2.69596 -3.70396 -0.511469
O -7.6229 -4.55284 -4.63083
O 6.25402 -5.54884 -2.36288
O 1.40657 9.69897 3.3011
O 5.82165 -2.48734 5.49353
O 4.93869 -0.902296 3.56651
O 0.413417 -2.18602 -7.95774
O 10.3944 9.51586 -4.21246
O 4.24233 5.18535 1.70071
O -2.49627 -1.68091 -8.10329
O -5.35825 8.26429 -7.46501
O -6.88532 -3.27384 7.25091
O 9.81095 3.70006 -5.99708
O 7.27668 -4.40354 -8.53977
O 7.02961 4.16155 -7.39211
O 4.17343 -8.33207 -5.27417
O 0.779853 -3.21948 -5.73495
O 3.29084 -1.33829 7.65592
O -5.56101 0.899723 -0.80594
O 6.55479 6.17589 1.2342
O 4.25903 4.44061 -3.92384
O 8.06333 7.54635 2.88558
O 1.20237 5.93223 -2.94829
O 1.77734 0.685876 -6.54715
O 1.69585 -3.63711 7.60245
O -8.27047 -5.85675 0.770397
O -3.50308 -3.79948 -7.49039
O 2.5813 10.0857 -6.04295
O -4.37982 0.215713 -7.95078
O -6.26754 -6.57333 -3.78414
O -2.47595 1.84378 -8.88287
O -3.01307 5.89412 7.50294
O -5.8746 -1.97938 2.14491
O -2.50547 -2.47638 -5.43692
O 3.54383 1.88272 -2.94158
O -0.161553 -9.85777 4.80999
O 8.35021 1.1483 -9.0487
O 2.12483 7.84447 7.91225
O 0.774864 2.66679 7.43874
O 2.06204 0.372766 4.21964
O 2.5481 -2.61611 -0.538856
O 8.83822 7.44155 0.395634
O -7.78145 -6.99854 -5.84677
O -6.28863 -3.65742 -7.15602
O -7.09106 -0.630393 -7.16356
O -5.08924 1.93182 -9.59064
O 8.66846 -3.92468 1.85722
O -0.814176 0.730351 -2.91441
O 8.18285 -10.1722 1.23177
O -4.70307 6.55604 -5.65393
O -6.61112 -6.0428 -1.22903
O -6.23642 1.6515 -7.30634
O -0.654088 -8.1099 -0.271686
O -10.1742 3.03416 -1.12956
O -1.95819 -9.0711 -5.45734
O -0.767022 1.10341 8.56856
O 0.308051 -1.92822 -3.47598
O -0.600816 -5.96891 3.42635
O 8.99248 -9.53871 3.63191
O -0.327649 -4.7284 -7.52074
O 5.46765 -10.1003 -3.60945
O 7.4449 2.03162 3.82832
O -7.63214 -1.04449 6.17989
O -0.834279 -4.54307 6.70795
O -4.70566 -1.66342 -6.5596
O 8.61234 -3.92935 4.45393
O 4.77519 -3.84394 -1.03116
O 5.15987 6.13522 5.40109
O 6.26593 8.79926 -8.42277
O 0.340284 5.07611 -0.685347
O 7.37802 -4.16228 10.2572
O 10.093 -0.626222 2.32925
O -5.75077 -5.76859 -6.29869
O 6.62603 -10.5042 -1.04194
O -5.5371 8.87401 1.52688
O -7.25817 -6.09994 -8.17009
O -0.0226191 2.59759 -7.33155
O 4.81495 -1.72893 -5.58256
O -0.804557 -5.47832 -0.202093
O -5.20216 2.83358 4.65607
O -3.15625 4.07461 5.55523
O -3.03001 -3.20151 6.23465
O 6.73282 5.52291 7.26831
O 9.48495 -2.99528 -0.412073
O 5.58547 -9.69198 1.27841
O -5.75729 9.47691 3.92778
O -3.01724 7.55264 5.55221
O -6.82841 2.21992 -4.01026
O -8.46282 -1.49267 2.3269
O 2.2614 6.76823 1.17788
O 0.679884 -7.28609 5.1392
O -5.74221 -5.71172 7.37816
O 6.2789 4.17798 2.94472
O -4.95756 -4.36356 3.00525
O 8.8124 -0.659138 -7.15294
O -3.34988 8.55032 3.1403
O -8.1155 1.32957 -1.27385
O -8.76074 8.97422 -2.45066
O -8.91519 4.29786 -7.32696
O 3.08845 10.2682 7.94352
O 1.30706 -0.904662 0.803939
O -3.44469 -1.43015 -0.319216
O -4.78384 -10.3124 -7.93018
O -4.82676 -3.38152 -4.80418
O 8.60468 0.863202 5.96565
O 3.6397 6.82722 -3.26541
O 1.80183 8.61032 -3.77545
O 7.66104 -6.97319 7.39034
O 10.3468 6.74629 3.66613
O -4.24497 -7.87026 6.35058
O -3.01893 -3.19091 -9.8725
O -2.44538 2.189 -6.40849
O -2.91881 8.64203 8.03446
O -7.33729 8.14827 -0.33034
O -5.25801 -3.12197 -0.928453
O 2.15102 6.63479 -7.80872
O -8.3653 9.95557 3.81782
O -4.86187 -5.13657 -8.9062
O 0.00369882 -7.20086 -8.16129
O 8.5336 5.71021 -4.90934
O 10.0472 -8.09343 -0.822902
O -7.99216 10.2794 -4.55308
O -2.98946 8.85376 -8.16968
O 9.413 -3.1831 -7.80955
O 7.18944 -3.24872 -1.60076
O -7.14323 6.39654 -6.75277
O 3.82696 -1.36945 1.27339
O -4.68091 -2.39731 4.42149
O 9.51614 4.92982 -8.07276
O 3.91997 7.15572 3.30138
O 4.67899 -5.00031 -8.4861
O 7.74856 -6.83996 -0.571813
O 0.880639 -1.84958 4.64594
O -0.80067 0.31125 -7.77975
O 8.41995 6.69178 5.43743
O -7.20684 9.13203 7.85466
O -3.70534 -9.9724 -1.75623
O 0.795505 0.0879757 6.62075
O 9.19004 -2.10167 -2.76591
O 2.79439 -2.81598 -4.1306
O -0.594102 0.378147 4.51791
O -7.16695 5.38719 4.86374
O -5.57981 -8.32987 -1.96661
O 0.738795 -6.74731 -2.10666
O 7.24004 6.2407 -8.93218
O -2.09881 2.88956 -4.01907
O -9.75336 -1.41509 -6.62301
O -0.569898 -2.92891 0.737137
O -10.2443 -2.66383 4.13941
O 6.88586 -9.67848 -7.80541
O -2.16616 -4.63615 1.91107
O -3.99143 0.495142 1.37534
O 10.4316 1.94685 2.80287
