585
Atoms. Timestep: 1790001
Si -5.92482 1.6705 10.3828
O -6.1528 2.17887 12.0378
H -5.33339 2.40366 12.4627
Si -7.59087 -5.12901 9.53383
O -6.86205 -6.35239 10.4847
H -7.46121 -6.72981 11.118
Si 10.5056 -4.24649 10.4561
O 10.426 -4.07328 12.1526
H 10.3396 -3.16633 12.4218
Si 0.44182 -6.62677 -10.0204
O 0.942217 -6.21143 -11.5528
H 1.20355 -6.93691 -12.1077
Si -2.51837 -7.49407 -10.1246
O -3.09235 -7.29161 -11.7553
H -3.76579 -7.92002 -11.9879
Si -8.92799 1.06626 10.046
O -9.44561 1.36264 11.6922
H -9.00782 2.05916 12.1673
Si 5.53608 4.81829 -1.81105
Si 4.20131 -7.91303 -3.03956
Si -5.65162 3.5816 -8.28666
Si 5.30322 8.03052 5.93749
Si -3.50119 0.0916473 -3.89603
Si -8.69754 -2.05582 6.51813
Si 2.79643 -4.27892 7.79371
Si -0.0631041 -9.86559 3.09532
Si -7.92102 5.81005 -4.75955
Si 1.99321 -9.20156 -1.5324
Si 8.05071 7.25955 6.95609
Si -7.646 5.94009 7.95608
Si 3.2072 -5.84933 5.06033
Si 4.60006 4.43305 -4.81263
Si 6.12185 9.50842 -1.89364
Si 6.86552 1.12254 -8.88089
Si -0.171261 -4.09778 -8.17827
Si 10.3276 -1.42873 2.83985
Si -3.53916 3.57724 -0.518089
Si -7.01267 -6.24438 6.72292
Si 0.463349 6.81059 -2.22977
Si 9.96648 9.63176 7.61921
Si 2.51334 5.25931 -0.831395
Si -10.1057 3.52582 -4.95055
Si -6.51623 -4.47084 -4.64136
Si 9.69595 0.917494 -1.60095
Si 8.89849 -7.09403 -5.43492
Si -1.95191 -1.75147 7.78622
Si 9.38048 -4.00701 -4.90646
Si -4.01956 -0.449416 6.01866
Si 2.83694 9.39252 5.39228
Si -8.15293 8.94626 7.87253
Si 8.80749 4.26499 6.91832
Si 2.69264 -1.59682 6.15571
Si 4.25549 5.79485 1.60707
Si 6.76387 -8.99545 -4.56279
Si -5.32099 9.92106 7.14652
Si 4.59594 8.77899 0.741702
Si 6.58998 2.88998 5.29489
Si -9.43808 3.38626 -0.663165
Si 7.13114 -8.28074 4.96438
Si -6.53236 -0.638479 -0.242434
Si -7.07732 10.3597 -0.570601
Si -3.41958 -6.78967 -1.5578
Si 10.2999 8.18606 -0.302122
Si 0.843348 0.0513364 -5.61702
Si -6.36318 -3.48789 -1.50046
Si -3.83617 9.03407 3.33565
Si 5.02866 -7.85455 1.47961
Si 8.48803 -3.99283 6.20409
Si -3.8703 7.50018 -2.37935
Si -6.0984 -10.2003 -6.65516
Si 8.86348 -0.958873 -8.05902
Si 10.4247 4.93838 4.31401
Si -2.59182 3.16286 -7.82293
Si 0.0685688 -7.83279e-05 6.36974
Si 5.65579 3.33564 0.787668
Si -9.88138 -3.99506 4.49969
Si 1.68479 9.78585 0.835055
Si 7.04307 5.54844 -6.40156
Si -0.733025 -1.58996 3.63739
Si -9.17093 9.84393 5.24726
Si -5.33514 4.03435 8.30012
Si -2.39251 -6.34622 6.51615
Si 10.3309 -4.15426 -2.00529
Si 8.02435 -5.72827 -7.91947
Si 0.484273 -7.04187 2.0844
Si 8.29001 2.74705 -6.39333
Si -3.12083 -7.50346 -5.99063
Si 0.296043 -4.76705 -5.0287
Si 2.61815 6.84734 -4.51986
Si 10.1929 -3.75175 -7.95157
Si 5.58122 -7.16186 -8.17447
Si -4.60862 -8.22625 7.00825
Si 2.77867 -5.70129 0.813513
Si 1.20282 7.25429 3.71549
Si 7.59595 -0.803768 3.62945
Si -8.91481 6.04356 -1.80838
Si -9.37607 0.618005 -3.95525
Si -6.56535 1.09956 -7.05724
Si -9.59408 3.45424 8.07379
Si 5.51304 -5.06281 -2.71352
Si -0.695589 2.96101 5.72069
Si -6.36278 -8.00056 -2.16705
Si -2.80835 2.90881 -4.72016
Si -5.1406 4.70568 -5.26835
Si 4.00697 -2.33421 -1.86708
Si 0.526548 -6.60802 -0.956786
Si 1.86962 -2.26348 -4.00566
Si -2.81578 8.1697 6.18937
Si 1.93225 -7.39987 -5.25473
Si 8.61344 6.99923 3.66013
Si -1.93924 -1.78426 -1.80267
Si 4.14937 -8.86158 4.29833
Si -4.27127 -0.400219 9.03745
Si -6.82372 -0.0492432 5.03317
Si -0.205753 -4.3152 7.42287
Si -9.92989 2.7893 2.19634
Si -3.64717 4.5405 3.63331
Si 4.4404 -2.55758 -5.94848
Si -9.4814 -7.72687 0.855091
Si 7.43822 1.29138 -3.69642
Si -2.17987 -8.96818 -3.34142
Si -6.16933 6.23296 -8.58175
Si 5.68561 -4.37312 8.54735
Si 0.637448 -10.0418 -4.03694
Si 7.26874 -9.03427 -0.314713
Si -6.3941 1.16789 -3.86909
Si 7.99497 -6.12191 -1.11161
Si -1.94265 1.57883 1.07897
Si 6.04741 -5.27636 5.44548
Si -6.34523 7.22841 -0.539605
Si -7.36221 2.91757 5.99212
Si 4.05463 -0.280196 -8.0678
Si -7.69019 5.77447 4.86263
Si 6.48925 8.91297 3.1382
Si -3.83489 -0.574585 -6.96427
Si 1.6228 -0.59473 1.80915
Si -3.32005 -3.34775 3.24735
Si 1.22709 -1.21994 -8.44024
Si 1.16045 -3.73323 4.5933
Si -1.51585 4.53373 1.53598
Si -2.94172 -5.23743 -7.98159
Si 4.80879 9.14502 -4.7181
Si -6.20036 -7.57849 -5.07719
Si -3.85834 -7.77914 1.19537
Si 3.34024 10.3476 -6.98954
Si -5.3965 -9.59694 4.47792
Si 6.16649 -10.1367 -7.57055
Si -2.19475 -6.2834 3.4237
Si 4.55827 0.612907 -2.81751
Si 2.68829 -7.71513 -8.15659
Si 9.21949 6.14308 -4.1688
Si 0.346854 6.92277 0.68445
Si -5.11453 -3.4641 -7.04385
Si 9.06351 -8.53865 7.54893
Si -2.38834 -10.4904 1.15754
Si -10.3458 9.20285 2.5829
Si -8.16936 -3.37278 -7.02705
Si 10.2244 -6.60273 3.31166
Si -2.0605 5.00152 -2.84471
Si -1.38252 8.58925 -0.894344
Si -2.9317 1.6544 3.86143
Si 9.16744 -1.80089 -0.0937663
Si 10.3403 -1.42736 8.90203
Si 10.2301 8.63325 -5.75676
Si 0.939669 8.68192 -6.16879
Si 3.72685 -2.6781 1.24304
Si -9.3525 -0.408445 -6.85737
Si 1.75022 4.24247 4.22751
Si -8.2585 -5.76135 -0.977864
Si 7.45255 -1.50559 -5.207
Si 0.198275 0.0932947 -0.74964
Si -0.116061 9.35032 5.4538
Si 5.53352 -0.0585011 5.93488
Si -6.20698 -2.77947 8.3861
Si 7.85377 7.0047 -1.41785
Si 7.24772 8.38198 -6.87939
Si 2.85777 2.26067 1.81457
Si 7.47676 -5.87493 2.03038
Si -1.08571 0.666561 -7.93237
Si -5.7544 6.61019 2.546
Si 5.83684 -5.18097 -5.89223
Si -4.14534 -2.4621 0.279269
Si -2.86134 4.98259 6.65564
Si -6.40843 2.52111 -1.2227
Si -7.90652 8.14106 -6.89083
Si -9.4758 -8.07352 5.6942
Si 4.46682 5.21741 4.72368
Si -3.35219 6.11181 -7.22002
Si 3.35328 1.52575 -5.50241
Si -10.0898 -10.042 -1.22412
Si -3.53223 -9.67736 -8.27047
Si 8.43781 -9.74105 2.56635
Si -3.9613 9.74985 -4.44701
Si -2.08798 8.93652 -6.82199
Si -4.84639 -4.23242 5.85871
Si 6.8209 -2.81563 1.64867
Si 2.1541 2.23413 -1.2495
Si -1.49813 -4.79283 -2.70015
Si 8.23162 -5.7911 8.85426
Si -8.11453 0.26066 2.31206
Si 7.32236 -1.68655 7.99095
Si 7.95222 2.09327 2.44423
Si 9.71552 -9.72745 -4.10117
Si -6.77859 -8.87029 1.93158
O -8.21855 -7.09618 5.90645
O -0.91855 -7.49536 -10.1225
O 3.79816 10.0825 -5.55152
O 2.71129 -0.680498 -8.90083
O 8.06112 -9.28989 1.04356
O 5.83388 -8.58416 0.371824
O -9.59486 4.65294 -1.57568
O -3.21816 -8.83545 -9.6115
O 4.7185 10.1817 -7.81587
O -1.34545 -9.78351 2.13186
O 9.84611 -8.31919 -4.98783
O -4.21734 0.199601 7.54294
O 4.9032 -3.64808 -2.32519
O -2.46917 0.986671 2.4977
O 7.86484 -7.77709 -1.2417
O 5.04017 9.03303 -0.7567
O 9.85891 3.64739 7.90472
O -1.15254 7.37201 0.154999
O -4.08719 5.77858 -5.7925
O -3.38823 -10.0131 -3.49262
O 6.78549 2.21134 -9.95341
O 0.689836 9.6958 -4.95825
O -7.81486 -3.93582 -5.52789
O -7.50307 6.3263 -1.10166
O -2.87695 -6.38941 -9.14312
O -2.33238 -8.03707 -4.69094
O 5.89679 -1.96092 -5.34072
O -6.4885 1.56612 -5.48467
O -3.45197 -6.80042 0.0269971
O 8.11386 -8.56323 6.22347
O 4.00516 8.89978 6.33633
O -2.09754 -6.73768 5.01159
O -10.0131 8.56323 1.14216
O -5.26549 -3.37185 7.19995
O 8.06605 -2.58152 6.81412
O -5.13371 3.39275 -0.803561
O 8.26701 5.72256 7.36924
O -4.9219 -7.1754 -1.97557
O -9.81219 -5.38146 3.64394
O -6.37692 2.40292 -2.84514
O -2.92887 -5.44556 -2.20812
O 6.14916 -8.68616 -8.21953
O 1.21776 5.71676 4.02602
O -10.4305 -7.53404 4.52878
O -3.50721 -5.11641 6.30747
O -8.53293 -10.4982 -1.12167
O -2.73907 6.58036 6.63532
O -5.111 10.2974 -5.4334
O -2.77187 2.60088 -6.27626
O -7.00224 9.45986 -6.79855
O 4.31134 -8.68076 2.67675
O -6.953 6.38984 3.63555
O 10.321 -0.248516 -7.74811
O -9.74798 0.00352138 -5.3975
O 1.00147 10.1725 2.30053
O -3.06233 9.29477 1.98202
O 0.0240569 -0.198882 -8.73162
O 1.06762 -7.8551 -1.77417
O 5.36233 4.47257 -3.33192
O -9.80656 3.76772 0.85986
O 7.57299 1.7007 -7.39209
O -3.15233 -7.58415 7.19081
O 5.24976 -2.38247 1.66793
O -2.77072 8.34603 -1.61485
O 1.22725 6.34754 -0.808167
O 7.27976 7.41574 2.9393
O -6.53388 -9.18139 3.46509
O -5.11762 0.300516 -3.71598
O -5.66806 4.30939 -6.80592
O -8.707 4.8141 8.13743
O -6.6033 -3.86107 9.54966
O 1.38959 9.6064 5.97976
O 5.45488 9.63793 -3.32796
O 4.10325 -0.745197 5.87898
O 2.21255 2.39503 0.330672
O -1.37475 8.93236 6.40194
O -7.17875 -4.56857 -0.690174
O 10.3641 -9.56105 -2.66322
O -2.84064 -1.17154 9.02118
O 1.92692 -5.75727 -0.536907
O -0.487322 -0.716669 5.00298
O 3.68645 0.886218 -6.89962
O 2.65646 -1.77657 1.97538
O 9.27448 -5.05639 9.84218
O 8.10046 -8.67144 3.67673
O 5.56321 -8.60808 -3.56767
O -7.33109 6.11651 6.38163
O 4.10835 5.73329 3.22815
O 3.3681 5.47987 -4.74237
O 1.91838 -5.13887 4.39806
O -10.0676 -1.83168 7.37933
O -6.50945 -8.29723 -3.70837
O -7.72959 7.02259 -5.78562
O 1.5571 -0.501095 6.48887
O 10.032 9.65885 -0.854248
O -4.69755 -8.48588 5.43281
O -9.96703 -8.73345 -0.28789
O 2.88674 -9.1906 -7.48256
O -4.27946 3.57528 -4.58837
O 9.32275 5.64007 3.36737
O -10.0013 3.71593 3.48302
O 3.19672 -2.35979 -4.97383
O 7.94184 -0.143466 -9.06021
O -3.89034 -3.08813 1.74542
O 3.45994 -8.67605 -1.80957
O 9.89921 -2.88579 -1.05932
O -2.20452 4.95386 2.94629
O 10.5038 -7.51391 1.98992
O -5.06585 7.94259 3.09921
O 5.39766 -6.57846 -6.65535
O -6.61824 -3.20655 -7.52178
O -0.697214 -6.28492 2.80859
O -9.5276 9.64176 8.35451
O 0.0681807 -7.23712 0.493842
O -1.1339 2.99447 1.50051
O -9.05759 -4.83009 10.0481
O -2.53217 -0.0673732 -7.84302
O 7.13073 8.34278 -1.86885
O 9.94817 -1.60921 1.33317
O -6.23984 5.40232 8.54066
O -2.55531 4.75727 -7.63394
O -1.56352 -3.22607 -2.39843
O 1.05134 7.25534 2.09498
O -3.09364 2.19778 0.168684
O -4.36104 8.52158 -3.56324
O -7.82013 0.386976 -3.71263
O 1.54995 -7.51178 -9.23883
O -0.314587 8.2279 -2.09774
O -5.47848 -0.730925 5.48176
O 1.8043 1.24723 -5.28767
O -4.13209 8.87934 6.88529
O 3.83311 7.89099 -4.37099
O -4.77759 5.3288 2.78757
O -2.9696 -0.832342 -2.6888
O -6.62445 9.50221 7.95544
O 7.59011 3.32694 6.4608
O 2.16372 -2.52165 5.00522
O -5.86432 10.2865 5.60347
O -8.96565 -9.55971 5.34061
O 4.82999 6.52877 5.60382
O -4.36946 -4.6414 -7.78954
O 5.72129 1.56699 5.74264
O 3.11013 4.38655 5.08532
O -0.446886 -5.66966 -1.78527
O -0.435108 0.660352 -6.39592
O -6.97885 -0.0132453 3.45306
O -6.38642 5.29074 -4.51938
O 7.53548 2.67039 3.94507
O 5.66326 -4.83673 6.97817
O -8.36931 8.97414 6.25744
O 5.43724 4.77678 1.38203
O 6.37365 -2.87107 8.61095
O -8.72459 -3.31695 5.45405
O -2.76995 -6.12443 -6.66781
O -4.30095 10.4839 3.68115
O -8.80606 2.78847 6.79543
O 4.53249 -6.38653 -2.60487
O -5.19206 0.231872 -7.18646
O 5.36625 0.370945 -8.64521
O 9.20937 -0.714011 3.7711
O -9.26525 -4.95584 -1.89657
O -6.1841 3.35314 7.08561
O -2.63877 7.49449 -7.11448
O 8.07063 -9.86035 -4.00006
O 8.70115 -6.9563 -7.03964
O -3.55544 4.78407 5.18878
O 8.02721 -1.17961 -6.68195
O -0.450863 -10.3238 4.52857
O 1.66862 6.84111 -3.22092
O 2.23764 3.33247 2.88808
O -4.69226 0.655123 10.1545
O -4.24414 -2.15272 -7.10195
O -7.5989 -2.43066 7.699
O -9.83622 7.20108 -1.14319
O 6.07196 8.67085 -5.78858
O 4.7466 -4.08855 -6.21876
O 1.39249 -1.08291 -6.82738
O 7.73316 2.307 -4.90631
O 7.40279 -2.14704 2.92156
O -2.72816 -2.04467 -0.39474
O 6.80164 -4.40251 1.9291
O 7.44763 -7.64418 -4.98055
O -3.85946 4.35144 7.79592
O -8.13558 7.43033 8.43644
O 9.51596 2.20015 2.15201
O -6.59871 8.80117 -0.728844
O 2.96359 -5.33602 6.58559
O -8.70397 1.75183 2.09135
O 0.192359 -0.724592 2.58644
O -7.35066 4.08182 4.90543
O -9.33139 2.40562 9.26565
O 7.19647 -4.86903 -6.72207
O -8.58889 6.18602 -3.32333
O 3.84504 -2.33625 -0.364903
O 9.27776 -5.00525 -8.45103
O -1.59047 9.91864 -0.145409
O 3.48882 1.54449 -1.87693
O -6.9026 -1.93907 -1.18876
O -4.4209 -3.51098 4.48764
O 6.03036 1.22685 -2.97465
O -0.780872 -0.692012 7.54997
O 8.74777 -5.95273 3.01674
O -9.32704 5.85063 4.72531
O 8.76467 8.573 -6.38784
O -5.49274 -7.93793 1.4112
O 9.71249 4.42439 5.63617
O 5.6374 5.05198 -5.86624
O 3.27098 -7.76447 -4.41176
O 4.2521 -1.60888 -7.16277
O 4.68385 -0.912534 -2.26098
O -9.2314 -4.0178 -8.01133
O 5.6894 8.6824 4.5031
O 4.1168 -7.24709 -8.7807
O 6.48704 -0.623406 4.74169
O -4.6821 -9.69735 7.54986
O 0.138916 -4.38634 -6.61221
O 5.6438 9.23563 1.8712
O -0.953078 0.675305 0.192574
O 9.22531 -10.0307 8.02055
O -6.24586 0.876692 -0.811745
O -5.42865 -1.51999 8.95164
O 3.02934 5.29693 0.730843
O 1.09578 -6.11365 -4.77941
O 10.4462 -2.73135 9.80339
O 10.2881 10.0367 -4.89207
O 9.95286 2.97963 -6.13626
O -9.46842 8.52228 -6.79954
O -9.39964 -0.501952 2.83197
O 9.89604 -4.16789 5.48711
O -1.54072 4.05265 6.49144
O 8.45332 -7.39842 8.58122
O 6.91033 -10.268 -1.2036
O 6.70495 5.87047 -1.40338
O 0.906716 1.29762 -1.56904
O -3.1053 6.24427 -2.90452
O -1.15661 -3.1385 7.9158
O 3.97524 -6.79666 0.86974
O 4.65256 -5.20048 4.66833
O 8.69848 6.69531 -2.78454
O -5.62264 3.02397 9.5552
O 2.09366 9.35116 -7.12216
O 4.47185 7.23756 1.0553
O -3.40882 -9.29078 0.754071
O -2.68712 -4.81318 3.2926
O 1.5129 7.27989 -5.65903
O 6.79752 -6.24972 -8.75816
O 0.942206 -1.0375 -4.42375
O 7.0659 2.76237 1.3245
O 5.55312 3.58768 -0.744742
O -3.1274 -7.22523 2.53094
O 9.20431 -5.62379 -4.88601
O -4.65217 -7.44026 -5.51489
O 5.67725 4.21404 4.87368
O -2.66367 3.94527 -1.80797
O 3.91617 2.98049 -5.21702
O 6.18733 -6.9164 2.12745
O 7.88338 6.12978 -5.12858
O 5.71206 -8.96148 4.83178
O 1.79672 -6.26169 1.90575
O -3.90225 2.96306 3.57851
O -7.8386 3.02574 -0.789619
O -9.1769 -6.30898 0.17629
O 3.33998 -4.23879 1.23727
O -10.3489 -2.82699 3.47472
O -0.176423 1.60122 6.41213
O 7.47432 0.555332 2.63874
O 6.61168 -6.75812 5.14455
O 4.10253 -4.40308 8.77919
O -7.65888 -5.53561 8.00692
O -1.42545 2.19694 -8.37048
O -1.64448 2.32842 4.54634
O -4.82315 -3.42921 -0.903547
O -5.08249 -9.97255 -7.87609
O 3.21695 9.48401 1.13028
O 3.97734 0.615446 -4.28382
O -3.44172 -0.456129 -5.39699
O -2.94275 -1.62538 6.54504
O 2.34365 0.798648 2.26583
O -2.78683 1.53497 -3.86625
O -7.34177 0.993051 9.95045
O 6.39195 -0.563255 7.23669
O 9.10831 -0.345507 -0.752779
O -6.70746 -6.08894 -4.86827
O 3.41845 -7.45581 4.81732
O -8.75482 -1.90522 -6.87812
O -4.63746 6.49949 -8.16563
O -2.45066 -8.01532 -2.0642
O 8.7673 -1.21657 8.79056
O 10.3986 9.73767 6.05574
O 8.81706 7.44811 -0.185867
O -7.63794 -0.343413 0.872722
O 4.41434 2.51232 1.54626
O -8.07156 -0.853674 5.76121
O -6.64255 -8.70756 -6.16391
O -5.3123 -3.90189 -5.47807
O 8.13492 -2.89548 -4.70455
O 8.42536 7.20834 5.30643
O -2.7251 9.98952 -7.93459
O 0.117899 -2.98189 3.68085
O 0.237996 -5.29668 -9.15525
O -8.13539 -8.14043 1.64961
O 1.07182 -3.60997 -4.33143
O -6.15225 -5.25945 5.78009
O 9.3097 -5.37837 -1.65445
O -7.23758 7.31039 -8.18141
O -10.4647 2.21432 -1.04929
O 7.17391 9.66435 -7.90734
O 3.98584 5.49402 -1.45468
O 0.619901 -8.42212 2.85867
O -9.73461 -0.196776 9.49074
O 0.0847069 8.03882 4.5123
O 9.40358 -2.42285 -8.44507
O 1.74126 -10.136 -2.81396
O 10.2276 7.31574 -4.73995
O -0.631176 5.64816 -2.53774
O 10.0838 -3.7013 -6.31836
O 0.932628 8.50705 0.178614
O 7.31646 -4.36874 5.14961
O -1.10808 -5.6561 7.20054
O -2.71121 9.34442 -5.39795
O 3.4088 -10.2833 4.69713
O 9.69157 8.12091 3.23069
O -9.21063 9.42624 3.70743
O 1.68801 -9.95713 -0.14708
O -9.55962 2.27792 -4.06826
O 2.96002 -2.75141 7.28947
O -8.05005 0.511891 -7.24835
O 8.07084 -5.97348 0.512295
O 7.67367 -0.195089 -4.3083
O -3.15546 8.39235 4.635
O -5.12009 -1.18351 0.439061
O -6.45967 -3.97057 -3.11495
O -0.778559 -9.68026 -3.36275
O 8.50541 -5.14299 7.36866
O -4.12337 3.08221 -8.47384
O -2.74331 4.55022 0.507108
O 2.31747 -7.00622 -6.78837
O 10.1793 -3.62153 -3.5162
O 2.54018 -2.28475 -2.56684
O -0.516844 8.78462 -6.84654
O -1.76129 -4.15376 -8.22198
O 9.90707 -10.3866 2.53739
O 0.563584 3.55678 5.06916
O -10.4277 -8.12248 7.04083
O -6.84587 -10.1463 0.945253
O 6.30621 -9.62722 -5.94959
O -6.15472 4.81619 -9.11848
O 7.7805 4.19656 -6.82569
O -0.535912 -0.965478 -1.62522
O -3.45883 0.621385 4.96751
O -6.36539 -9.4661 -1.40222
O -7.45511 -7.03635 -1.5455
O 1.06797 -8.77667 -5.02485
O -1.10874 -5.01246 -4.24363
O 9.18162 8.23005 7.64173
O 2.05383 3.87212 -1.54071
O -5.01699 6.934 -1.36915
O -1.97982 4.20252 -4.27481
O 2.44518 8.14034 4.34157
O 8.55033 1.45826 -2.53929
O -6.95696 1.497 5.43294
O 1.26311 -0.513393 0.266
O -8.84647 4.52284 -5.20881
O 6.57406 7.88764 6.91766
O -0.295081 5.45187 1.16253
O 6.75384 -5.3603 9.27829
O -5.92171 -7.33473 7.24525
O 0.326423 -3.96429 5.97558
O 7.57206 10.0177 3.20345
O -3.09905 -8.6395 -7.13212
O 1.21995 -4.45203 8.21055
O -2.25754 -2.12729 3.50236
O 6.99335 6.79799 -7.40231
O 5.88901 -5.1243 -4.28696
O -10.2954 0.177978 -2.72014
O -6.18217 6.8742 1.03366
O 0.646329 -2.73117 -8.63685
O 9.88241 4.68364 -4.31396
O 7.70625 -2.33634 0.419431
O 6.74546 -5.42314 -1.77096
O -6.54386 2.30793 -8.16783
