591
Atoms. Timestep: 1790001
Si 3.0854 -8.74546 9.79821
O 2.38554 -8.82172 11.3485
H 1.74596 -9.51825 11.4395
Si -10.3964 6.18258 -9.24766
O -10.5084 5.69655 -10.8354
H -10.2375 6.35042 -11.4691
Si -1.08445 -2.06981 -7.28783
O 0.248442 -2.037 -8.40555
H 0.0469781 -1.75761 -9.2909
Si -0.00891697 8.56593 -10.6808
O -0.0166897 8.75534 -12.4009
H 0.701015 9.25942 -12.766
Si 6.19102 -8.28574 9.96776
O 6.6062 -8.19384 11.6532
H 6.6372 -9.04492 12.0741
Si -1.55373 4.57227 9.05418
O -1.59458 5.40385 10.5162
H -2.46209 5.55739 10.8717
Si -3.94441 -2.52138 -8.35229
O -4.22821 -2.18674 -9.98198
H -4.86303 -1.49214 -10.1125
Si -4.68864 4.5704 8.39899
O -5.37134 5.20198 9.82574
H -6.27705 4.98274 10.0104
Si 0.349646 -9.67859 -9.25528
O 0.496983 -8.29251 -10.1962
H 1.38526 -7.95647 -10.2194
Si -9.00999 3.47057 -8.19011
O -8.46228 2.92095 -9.7189
H -8.8241 3.36454 -10.4771
Si 0.0141214 7.74293 0.389212
Si -9.06412 -5.44997 1.93836
Si 9.19466 6.41812 0.923782
Si 6.68995 -7.51408 1.63366
Si -4.20569 -8.35306 1.80067
Si -10.1028 2.05852 -1.08153
Si -0.774756 -1.88933 -1.96401
Si -6.31909 -5.62724 -4.85562
Si 5.47997 -4.36674 -5.92915
Si -3.35853 -6.93916 6.08723
Si 3.01618 3.63986 8.29731
Si 7.21307 -6.17734 7.80732
Si -3.05996 -0.282395 3.07504
Si 3.48634 -2.5695 -4.63245
Si -3.17886 -1.77215 7.32318
Si -10.3163 -8.13142 5.15377
Si 7.58488 -3.87885 -3.55111
Si 7.44366 2.88525 5.83237
Si 6.05773 -3.47817 7.054
Si -1.57455 -10.3992 -3.69471
Si 2.70499 -9.36744 -7.02384
Si 5.33925 1.67792 7.76726
Si -5.35153 7 -8.36645
Si 6.82781 10.1747 8.30265
Si 9.22678 3.32385 1.26012
Si -1.89978 -5.93391 -5.31228
Si 0.14499 2.23315 8.24902
Si -1.90979 -4.12315 5.41474
Si 9.07923 -4.93645 -5.97567
Si -4.80414 6.76388 -3.03903
Si -7.01787 -4.18645 0.499755
Si -0.54915 1.19309 -1.30004
Si 2.62083 3.32104 5.13579
Si -6.21613 4.35645 -6.95937
Si 5.25716 6.95158 5.83013
Si 10.2213 7.89982 5.28257
Si 6.01486 3.25362 -7.87993
Si -10.1957 -9.22195 -6.22775
Si -6.46655 2.17109 7.22872
Si -9.46473 6.43253 -1.13912
Si 3.58663 -2.21414 -1.55364
Si -6.98766 5.19904 -3.92529
Si -5.90459 -2.44288 7.05845
Si -1.33659 2.5615 5.43307
Si -0.265625 -0.113784 4.5216
Si 7.01986 -0.762089 7.98733
Si -4.14728 -5.38305 -7.27742
Si -4.43517 2.1771 -5.80783
Si -8.20315 8.32821 -8.53582
Si -9.31628 -8.4072 2.46243
Si -4.90738 2.87714 -0.819152
Si -6.51686 10.2315 -5.14346
Si -7.75442 8.07999 5.16725
Si -4.37595 -1.51873 -3.94952
Si 7.82467 -0.945464 -4.16687
Si -7.76417 -9.69926 -7.89037
Si 8.16706 -0.0283211 5.18328
Si -0.657468 9.5933 6.43404
Si -4.7701 -9.30529 4.5593
Si 3.24401 4.45094 -8.02989
Si 4.27872 9.1216 3.75006
Si -5.67013 -0.707962 -6.46705
Si -6.02164 0.0838692 -1.88343
Si 4.96861 -7.33307 -6.41305
Si -4.68444 5.37008 3.20767
Si -8.21423 -1.14797 -3.40304
Si 8.01418 7.72394 7.27442
Si -6.76937 -8.28777 -3.23978
Si 7.10444 -7.70561 -1.35132
Si 9.21584 -9.80627 -1.90955
Si 7.8827 5.68011 -7.63594
Si 5.34204 4.32424 3.94641
Si -3.31591 -8.79748 -5.34502
Si 7.54817 -2.38244 -7.02145
Si 0.520299 -2.16996 -4.83273
Si 0.349981 -6.57101 -3.39099
Si 1.16545 -9.38623 -4.3257
Si -2.53691 -10.1949 -7.95477
Si 7.33434 0.553598 -7.48861
Si 8.70049 -5.31217 2.01255
Si 4.59379 -7.51391 -3.22813
Si 9.33175 8.95263 2.71225
Si 3.87176 -3.53509 3.05032
Si 4.19686 2.50852 -0.845008
Si -4.47681 8.976 -0.795828
Si 10.3716 1.08108 -6.75666
Si -5.0609 6.72844 6.0669
Si 5.16017 -0.0527068 -5.19765
Si -7.60723 8.61832 -0.212946
Si 6.45436 6.03943 -3.66441
Si 3.57584 8.66744 -6.67132
Si -4.34847 -8.93664 -1.21665
Si -1.70764 4.40751 2.99606
Si -7.05605 -3.95569 -2.43026
Si -9.1073 8.87719 -5.52583
Si 7.93335 -8.06384 -6.07837
Si -0.306022 -0.949641 7.67842
Si -3.44181 4.02059 -3.38756
Si -2.13036 0.283914 -5.55442
Si 6.4436 6.89567 -0.647061
Si 0.887043 -3.70547 7.0945
Si 8.29412 -1.24836 0.43115
Si 0.63382 5.61901 4.24939
Si -7.74958 -9.71757 4.72723
Si 0.0208957 6.69716 7.17985
Si -10.082 -1.10311 -0.899258
Si -7.10688 6.75139 2.28751
Si 3.04126 -9.46623 -1.43933
Si 4.47804 5.09631 1.00112
Si -8.79375 -3.14093 4.00993
Si -0.587269 6.1377 -7.14226
Si -7.78437 0.970311 2.56184
Si 3.62405 9.49421 8.43102
Si -3.35943 8.92431 4.84489
Si -8.59154 -1.25212 -6.53596
Si -6.9326 -0.808763 4.8138
Si 3.44591 -2.51556 5.87244
Si -9.04386 -4.29288 -5.78206
Si -2.99091 -4.05343 -2.89066
Si 2.27172 10.3069 5.72052
Si -0.399394 -6.16708 1.22891
Si 2.47389 -7.19609 0.499505
Si 9.47707 5.2453 6.28228
Si -1.38017 -9.58826 1.80417
Si 1.97081 6.97263 -8.85905
Si 2.74065 -5.24309 -1.95931
Si -9.72928 -7.97609 -3.37633
Si 5.50625 -2.18036 0.959504
Si 8.86687 4.47071 -4.9582
Si 0.741896 0.870626 -5.14575
Si -9.04434 -5.4371 6.07515
Si 8.15473 -3.6743 4.74873
Si -5.21457 -5.47663 2.61997
Si -6.05234 -5.4174 5.76782
Si 3.08181 6.57391 8.23414
Si 6.57108 8.08565 -5.92052
Si -0.16283 -7.66144 3.82642
Si -0.985291 -8.35241 6.8246
Si 9.57161 1.6964 -3.92149
Si -4.01981 0.896609 5.78786
Si 6.71223 1.59032 0.602325
Si 4.60878 4.40738 -5.52172
Si 8.53186 -4.93126 -1.05808
Si 3.53473 0.560575 5.29295
Si 9.67903 -4.37755 7.41942
Si 7.7619 -8.79044 5.95383
Si -2.96529 -3.18516 2.66062
Si 10.3987 1.49926 3.70222
Si -4.51748 8.16075 -5.54936
Si -7.25505 3.82362 2.92833
Si 2.43498 7.15752 2.31359
Si 2.55247 -7.65687 5.28297
Si -4.93072 -8.34917 -7.83733
Si 3.31052 2.19141 -3.89995
Si -0.192235 3.66732 -3.32929
Si 7.45577 10.4539 -4.17425
Si 6.87756 -10.114 3.26339
Si -10.0138 10.4784 0.483534
Si -9.0234 3.42639 5.56339
Si -2.58788 8.48714 1.85742
Si 9.82835 -1.19055 7.67206
Si 4.1509 -6.60456 3.05398
Si -9.88086 6.32509 -4.16597
Si 5.71491 0.214479 2.99238
Si 0.648476 3.44255 -6.51691
Si -0.0412396 -10.3636 -0.962174
Si 9.57755 -1.42244 3.32101
Si 1.50357 -6.57126 7.92976
Si -2.52192 2.05317 1.0768
Si 0.294494 6.46504 -2.38275
Si -2.56195 7.74587 -9.08963
Si -1.55915 7.61652 -4.58528
Si -7.65221 3.81857 -1.44374
Si -9.97484 -4.83088 -3.02004
Si 5.07711 9.43125 -2.1747
Si -0.526197 -3.13089 0.876963
Si -8.09304 -0.453166 7.49417
Si 2.22332 0.17642 -0.178591
Si 1.54059 -1.41388 2.38621
Si -2.1989 -6.61461 -1.32229
Si 2.49363 8.63431 -3.7007
Si -7.37107 -1.31246 0.528372
O 6.04321 1.44324 1.99956
O -7.7523 2.89113 6.52027
O -7.49986 7.80112 1.17848
O -3.84655 -9.39496 -8.40471
O -4.77646 5.68948 7.26916
O -2.47871 -7.73521 7.13718
O 8.36839 -6.47111 -5.97268
O 3.84087 -7.40891 4.33567
O -7.36425 -2.42829 -2.9508
O -4.23545 10.2182 4.76499
O -9.74033 -9.068 1.09271
O -0.448804 -3.97546 6.13197
O 7.86469 -2.28894 -3.41821
O 5.45066 5.61397 4.92116
O -10.4462 -8.21599 3.5907
O -0.69321 -9.59096 0.292549
O -3.11051 -0.790987 -4.75376
O -10.2735 6.31095 -2.58739
O 4.4411 1.18506 6.45261
O 0.776161 6.63618 -7.93375
O -8.90179 -1.66596 -0.0239103
O 6.60196 -2.29729 8.03398
O -0.938479 -10.298 -2.25682
O -7.14651 -10.3693 -6.59667
O -10.2176 -6.39173 -3.41356
O -6.78472 7.65987 -8.78366
O -9.91737 10.2731 -5.78705
O 2.81132 8.26384 -5.32036
O 9.30237 -8.79885 -6.54802
O 8.8261 -4.53812 -4.40824
O 6.88368 -7.16835 9.05818
O -2.76532 -2.93815 6.26289
O 2.91305 8.0088 -8.01587
O -0.220142 -2.48325 -0.56656
O -9.82777 -5.08025 7.42048
O -8.62394 -6.95058 2.25227
O -4.8252 -0.586782 -2.8081
O -0.0486183 -4.63236 1.02666
O -6.18146 6.01807 -2.75551
O 4.18117 -2.93663 4.53697
O 3.54415 3.42874 -4.87816
O 2.6063 -2.69408 2.60022
O -4.04787 7.26956 -9.36331
O 1.97416 3.75906 -7.42742
O -6.55986 7.40865 6.08686
O 7.14632 -9.22224 4.56167
O -2.66938 -8.68333 1.73651
O 9.76085 -2.839 7.83033
O -7.5257 -0.0241033 1.38945
O 10.206 8.86075 4.022
O -1.54833 1.82046 -0.198298
O -6.52119 -7.06333 -4.24616
O 10.4751 6.55738 -0.0372839
O 9.98563 -10.486 -0.731659
O -3.7806 -8.14655 5.07812
O -2.97104 -9.64359 -3.93292
O 0.807118 0.833475 -0.594754
O 2.35791 -6.71756 6.52809
O 1.5745 6.72985 7.65908
O -9.01335 -3.95694 5.38466
O -3.05877 -7.98003 -1.41702
O -7.54118 -2.11607 4.13892
O -1.61876 3.6966 4.45593
O -7.69689 9.71716 4.98502
O 3.13662 5.14447 8.9662
O 7.86024 5.29245 -4.01695
O -3.98574 2.62437 0.510863
O 9.37318 -1.54847 -0.687906
O -9.40105 7.46159 -9.18917
O 3.09141 -0.903238 5.87149
O -2.40592 -2.52694 -8.0069
O -4.10261 -3.03174 -3.45369
O -1.0623 -9.76378 -8.46487
O -0.383283 2.6779 6.80013
O 10.1741 2.91313 -0.00221431
O 6.67445 7.25417 6.48187
O -6.44138 -8.81727 -8.25356
O -4.05754 -4.34264 2.68908
O 5.34805 4.6762 2.34331
O 6.44356 -8.07995 -6.71802
O -7.35644 0.129581 -2.78896
O -2.69324 9.20617 -8.19417
O 1.32615 4.21986 4.60368
O -9.51661 -1.24841 -2.41636
O 3.87375 3.71046 4.23715
O 6.13658 -5.02022 7.47103
O -1.05151 6.90414 -3.20544
O -1.53308 -0.554864 -6.78886
O -0.893312 -6.72934 -2.23959
O -0.336493 -0.685937 6.08253
O 4.1333 -1.24452 -5.4032
O 1.14726 -4.99726 8.00072
O 7.67418 -9.05982 -4.67496
O 3.85969 5.23487 -6.73026
O -3.77257 0.349262 4.30869
O -8.47868 -1.04881 -4.95192
O 2.86341 3.76857 6.69749
O -6.96501 -2.7276 1.09896
O -2.88722 0.753298 1.8409
O 4.59033 -2.9592 6.91563
O 8.74093 0.313369 -3.76629
O -8.57146 -4.33057 3.03176
O -4.1723 7.75795 -1.90813
O 0.318067 6.71737 -0.801171
O -8.6157 9.76495 0.166549
O 9.32317 -8.62457 5.84272
O 3.71791 -5.08617 3.26239
O -6.03189 -3.97162 6.4294
O 4.26018 2.70639 8.53034
O 8.26512 -6.56059 -1.28661
O -5.30418 0.774897 -5.93083
O 3.30263 -7.1277 1.82081
O -4.60069 -2.3184 7.87955
O 1.00158 -0.70721 -5.43968
O -0.812814 0.817864 -4.76277
O -1.41908 8.07356 -10.1882
O 3.60489 -8.68925 -2.76237
O 3.29373 1.34258 -0.211238
O 7.83233 6.69833 0.10751
O 9.14558 8.47529 6.32116
O -0.396034 -6.12587 -4.78928
O -9.98016 2.33351 -7.56702
O -9.15681 -9.03282 -7.47844
O -6.23821 3.76404 -0.625916
O 4.46871 3.50036 -8.42126
O 8.3857 4.14393 6.06426
O 6.34793 -7.50193 0.0655111
O 5.38339 10.1697 3.43524
O 9.15582 -1.29392 1.81671
O 0.875733 -7.0425 0.79244
O -8.62154 8.3017 -6.96795
O 6.5527 7.34972 -4.49825
O -0.825648 5.6118 8.00598
O 8.61474 -0.65214 8.51022
O 9.09632 7.49087 2.10501
O 8.55402 -5.36857 7.95077
O -4.50045 -6.87655 2.28244
O 10.3645 -5.36384 2.05285
O 6.44459 -4.28763 -4.61382
O -0.439441 5.35636 3.06866
O -6.43537 4.90527 -5.45252
O 5.28471 6.27705 0.256796
O 3.45753 10.2579 -6.85749
O -10.1236 0.480789 -0.623193
O 7.38427 -4.35093 -2.05855
O 1.4424 7.56894 -3.07254
O -0.700689 6.90392 -5.78354
O -1.81409 3.13864 2.01522
O -8.31258 -8.14524 -2.75338
O -8.21844 3.97796 4.22199
O 8.70977 10.2033 -3.20586
O 0.0201931 6.28743 5.57063
O 8.52982 -2.2088 4.21091
O 7.07289 -2.22441 0.552616
O 6.51032 3.3239 4.57375
O 3.91039 8.62129 -3.03121
O -7.63167 5.218 2.05647
O -1.91347 9.19904 5.46642
O 4.35428 1.14454 -4.4669
O -2.06016 -3.58315 3.92242
O 5.98476 0.413564 8.46153
O -3.92397 3.57267 -1.96762
O -3.89261 5.55386 -3.53344
O 6.0478 -7.50988 -2.56062
O 5.26104 -5.78302 -6.57032
O -8.1509 9.96209 -8.77669
O 1.21282 7.60879 -10.1499
O 3.05156 -10.2906 9.27909
O -0.50784 1.42498 4.66862
O 3.63224 8.22438 2.55467
O 0.143012 -7.53132 7.59693
O 7.98242 9.80557 2.94804
O 7.05272 -0.473119 6.42775
O -7.17832 -0.710929 -7.02676
O -5.45775 6.4138 2.23211
O 4.70319 -1.99175 -0.408803
O 3.88474 -2.28065 -3.10643
O -1.76129 4.10623 -3.50623
O 5.69798 -6.65782 2.62132
O 7.38398 -7.31328 6.58415
O -4.68001 -1.3993 -7.51312
O 8.8009 0.922453 -7.05002
O 2.11505 -0.365497 1.35896
O 6.28419 -0.456479 -4.16556
O 5.66978 1.9184 -0.557596
O 2.82201 5.61346 -9.08417
O 5.2071 9.7469 8.24065
O -8.58934 2.51637 -1.23806
O 7.42118 -1.02977 -7.95169
O -5.10652 3.22439 -6.7791
O 7.04072 0.0104655 3.90551
O -1.92376 -2.9847 -2.30555
O 9.15182 6.28436 -8.56971
O -0.533654 8.20119 7.31619
O -4.67564 -8.51342 -6.19082
O 1.57704 -9.52997 -8.22972
O -7.40078 3.87168 -3.08442
O -0.60507 -2.70629 -5.86709
O 4.84944 8.06194 4.818
O -3.13021 4.30041 8.60656
O -8.05358 -0.366123 5.90822
O -7.70064 9.17723 -4.76936
O -8.79013 -2.88335 -6.64946
O 6.0434 0.434368 -6.39622
O 0.347983 9.97437 -10.0554
O 2.42379 1.73392 5.13545
O 8.51317 -4.6151 0.548462
O 0.719123 9.92032 5.69517
O -2.55139 -7.39775 -5.13492
O 0.562122 -2.29435 7.88986
O -2.99333 -5.32935 -1.84603
O -3.06513 7.70495 -5.20791
O -7.61196 3.72828 -7.42582
O 3.1281 -8.48954 -0.214822
O -0.38762 4.57435 -7.00355
O 6.04293 10.2306 -3.24703
O 6.31757 6.15361 -2.07568
O 9.24981 4.92044 1.45505
O -9.98169 -6.55758 5.49086
O -9.35382 0.894836 2.90036
O 4.08915 3.91601 -0.042786
O -5.49316 -1.5332 -5.11687
O 2.96035 -3.6961 -1.49234
O 4.19496 6.64177 7.06053
O -8.53774 5.08179 -1.00531
O 4.17561 -3.80882 -5.26981
O 7.31234 -9.97486 6.99386
O -6.15182 -5.18122 1.43308
O 10.3345 5.1252 -4.83407
O 8.22535 -4.5946 3.3766
O 3.06358 9.93011 4.4252
O -4.11139 3.01963 -4.45114
O 7.56598 8.81847 8.30509
O 0.102788 0.551366 8.32257
O -4.05808 7.92008 5.87296
O -10.0352 -2.19267 3.57932
O 2.06576 -3.30446 6.12223
O 1.04609 -7.99036 -3.51723
O -2.76442 1.98037 5.88133
O 4.96343 -3.41921 1.91105
O 0.591848 4.89763 -2.6428
O -0.752622 -7.9096 5.2353
O 9.37858 -0.847664 6.16012
O -10.3562 -5.06356 -6.29526
O -2.60535 -5.45346 -6.68562
O -4.05741 10.4297 -1.27731
O -5.55318 3.22873 8.01353
O -9.66046 4.93803 -8.41647
O -9.92686 2.21727 4.92187
O -1.09776 -0.330489 -1.78124
O 1.87174 10.1232 -3.82253
O 6.55325 2.5994 7.15131
O 1.48991 -9.90008 -1.22971
O 7.59852 0.215505 0.411587
O -1.87956 9.95371 2.21468
O -0.82074 3.17877 9.18377
O 10.2341 2.13192 -2.51857
O -5.77386 -1.47459 5.70738
O 8.50031 -3.76052 -6.94064
O 6.83095 -9.73964 9.47307
O 3.67522 2.58963 -2.36454
O -2.51256 -5.60085 5.56006
O 3.68999 -8.09306 -7.09093
O -5.62284 -8.4235 -2.10675
O -8.25521 -9.39005 3.2569
O -4.81241 -9.37398 2.89622
O 8.11924 -6.82224 1.84847
O 7.26972 9.4852 -5.44383
O -9.60877 -3.89539 -4.27478
O 0.684191 1.83253 -6.44387
O -3.27173 8.25513 3.35154
O -6.25555 -4.66451 -3.60513
O 1.98572 1.41252 -4.17568
O 8.30026 1.60774 5.45311
O -8.45083 -4.88712 0.569805
O 2.53683 -0.985971 -1.19257
O -8.97198 -8.97639 5.51401
O -9.20919 7.76905 5.6535
O 1.31712 -5.38422 -2.72649
O 8.42775 4.83441 -6.43085
O -5.14321 -5.47832 -5.99152
O 2.28944 -7.55604 8.97909
O -0.298411 2.31129 -2.44716
O 7.82725 -9.09138 -1.44396
O -9.73151 -8.41486 -4.91062
O 6.93134 4.55707 -8.32809
O -0.960644 -9.93053 7.07541
O 9.74828 6.37197 5.12035
O 8.73337 2.95097 -4.45028
O -7.54695 2.45879 2.25903
O -6.05661 9.009 -0.537364
O -4.81924 5.83429 4.71539
O -5.69482 4.05368 3.18572
O -0.356937 -8.95621 2.90295
O 4.74941 -7.53457 -4.83545
O -3.67949 -1.76249 2.7145
O -4.49538 -3.9919 -7.96946
O -6.274 -9.11371 4.93668
O 2.92555 9.63911 7.01835
O 0.273055 -2.05651 1.79465
O -5.60707 5.44382 -8.02858
O 6.87538 -3.51654 5.67302
O 2.45116 -9.12528 5.86951
O 1.20987 7.72988 1.4495
O 6.79608 1.85018 -8.22786
O 10.1951 -8.80392 -2.51976
O -5.87648 -5.42521 4.10795
O 8.09179 -1.49423 -5.68133
O -0.101126 9.10644 -0.449177
O -7.21077 0.833833 7.9444
O -2.95156 1.5436 -6.11455
O 7.26229 7.07983 -6.98398
O -1.57753 -0.560947 3.64518
O -10.4289 1.4331 -5.18155
O -10.0932 4.46138 6.35465
O 6.81741 -9.08006 2.05755
O -6.44462 -0.850782 -0.699034
O -1.36923 7.66216 1.21058
O -6.42463 -4.03148 -1.00474
O 10.2804 9.71416 1.68305
O -7.47045 7.40145 3.71619
O -9.82119 -0.293416 -7.0422
O 3.1116 5.82306 1.57408
O -6.52059 -9.62235 -4.07918
O -7.77398 -5.17549 -5.59509
O -2.58439 -9.74047 -6.39544
O -0.595809 -6.45925 2.80223
O 0.454194 3.62204 -4.86249
O 5.71057 3.51997 -6.3133
O -8.38861 7.64209 -1.209
O 3.80458 -6.11414 -2.81253
O 9.72291 2.60316 2.62488
O 5.45989 -0.990071 1.96953
O -7.26189 -1.84775 7.67502
O 4.64606 -8.37269 9.81637
O 3.35987 8.00644 8.99355
O -4.84611 -6.31384 6.3033
O -5.00506 9.73267 -5.37597
O -5.30146 7.51811 -4.34369
O 5.10757 8.36302 -6.42661
O -10.0066 7.77658 -4.85342
O -4.54396 -6.80763 -8.04653
O 0.0499086 -1.95197 -3.3187
O 9.20661 -4.21209 5.86118
O 6.18015 -3.22795 -6.90584
O -3.67476 8.6982 0.598997
O -8.33094 6.00847 -4.19298
O -1.80978 -1.39427 8.12849
O -9.6758 -0.728566 7.89286
O -3.58491 -0.297502 6.79035
O -5.42896 1.47143 -1.39793
O -6.8833 0.416135 3.7963
O -4.7267 -8.69357 0.3149
O 0.975752 -0.666882 3.68516
O -0.393984 -9.65383 -4.49619
O -4.97032 7.74608 -6.96742
O -5.42292 1.52977 6.21645
O 8.93489 6.30362 7.44667
O 4.10973 10.3876 -1.32373
O -2.38419 -4.88493 -4.23804
O 1.93458 -2.83805 -4.69138
O -2.03675 -3.14323 1.35914
O -7.54129 -5.91948 6.0443
O -1.46587 9.11224 -4.13449
O -1.65136 -6.39061 0.19293
O 7.75672 2.79997 0.842763
O 5.25297 5.2854 -4.40055
O 1.85939 -9.0847 -5.7295
O 9.90259 -4.52707 -1.88973
O -1.87145 6.61999 -8.10468
O 1.8253 6.61164 3.75502
O 1.66913 2.75456 8.61882
O 6.08853 8.42483 -1.24529
O -3.18182 5.06304 2.75084
O 4.39639 0.361836 3.90546
O -8.49396 -4.73852 -2.3062
O 2.72494 -6.07279 -0.608578
O 9.50956 0.080845 3.92487
O 1.36031 -7.46874 4.21798
