594
Atoms. Timestep: 1790001
Si -0.436446 1.59119 -8.07414
O -1.30431 0.741581 -9.23585
H -2.24943 0.8222 -9.18344
Si 5.16178 -1.12432 8.53644
O 5.70353 -0.8675 10.1662
H 5.49786 -1.58764 10.7507
Si 2.24369 5.59726 9.80068
O 1.94359 5.68422 11.4857
H 2.68215 5.80284 12.0713
Si 5.40467 5.48133 9.61985
O 6.0251 5.28216 11.1839
H 6.8466 5.7316 11.344
Si -6.54305 1.69072 8.32315
O -6.67786 1.02134 9.86609
H -6.46208 1.60835 10.5812
Si -7.09077 4.7876 9.08179
O -7.14974 4.67982 10.7834
H -7.13931 5.5254 11.2163
Si 1.26229 -5.82009 -8.57812
O 1.76365 -5.54427 -10.1691
H 1.75388 -4.61808 -10.3802
Si 2.04182 3.16594 -9.32259
O 2.06791 2.87475 -11.0209
H 1.4402 3.38546 -11.5186
Si -7.44008 -0.0992329 -8.54592
O -6.93745 0.0332394 -10.1542
H -7.567 0.433177 -10.7426
Si -7.43622 3.0736 -8.01752
O -7.32307 3.53349 -9.68605
H -6.4607 3.79342 -9.9881
Si 4.28899 -4.15396 8.97473
O 4.89277 -4.36396 10.5777
H 5.68436 -4.87456 10.7008
Si -1.17373 -7.52269 -9.36195
O -1.49314 -7.17511 -11.0004
H -2.34556 -7.4604 -11.3077
Si 4.66701 9.11371 6.01439
Si -1.34199 0.828159 -1.74401
Si 6.43576 3.10729 7.71493
Si 6.91641 4.75012 -4.82002
Si 3.39355 0.87637 4.193
Si 6.52068 6.81238 -1.21674
Si 0.191895 -6.39751 -1.43745
Si 9.04239 6.03307 -6.66779
Si 7.52479 -6.79119 -5.53117
Si 7.47742 -7.85686 0.270659
Si 8.2743 8.9006 -6.62672
Si 3.25995 -8.48986 3.3634
Si 8.42305 4.60456 0.284047
Si 6.43719 -8.30484 3.0913
Si 6.81225 -2.25386 -6.05227
Si -1.31237 3.87551 4.84578
Si -1.64367 -9.21052 -5.59264
Si 0.491374 -4.39438 3.06525
Si -1.29319 -4.64183 7.28956
Si -3.56778 -0.98913 1.27779
Si 8.17645 1.82901 -0.693879
Si 4.44651 9.48517 -3.35071
Si 1.59681 -2.53877 0.806617
Si 9.31902 -5.37189 0.366453
Si -4.72407 -6.23406 -3.70059
Si -2.2714 7.96355 7.62373
Si 9.55551 2.83922 7.57399
Si -5.79894 9.33222 6.02401
Si 2.43226 -3.19331 5.31554
Si -10.4771 -9.21216 4.92646
Si 8.1578 -8.12331 7.85298
Si -1.04558 3.54028 -3.22335
Si 5.76912 -2.37294 -3.22389
Si 5.52644 5.85668 2.9914
Si 3.5011 9.25813 3.17688
Si 1.96637 -3.27935 -7.06565
Si -0.344107 6.22659 -5.66842
Si 2.90619 -7.81926 6.55409
Si -7.50729 7.70925 -2.54198
Si 3.65229 6.70253 -2.16125
Si -0.733725 -9.7147 2.06012
Si 0.500012 -8.7618 -3.37495
Si -4.34249 -9.85644 -1.7016
Si 7.1556 -1.03653 6.08823
Si 8.81835 -9.98116 -1.68198
Si -8.04069 -3.05398 1.22734
Si -10.0761 -2.82959 -4.2432
Si 2.51274 5.95343 2.77664
Si -5.57732 3.25947 -0.55031
Si -5.15686 4.25537 -6.09141
Si -8.94903 2.39271 -3.81529
Si 1.87423 10.237 6.84306
Si -9.12854 -2.11126 -1.64764
Si -7.19397 8.33187 3.42557
Si -1.34053 -2.8948 4.74446
Si 10.1102 2.44764 4.57112
Si 9.94498 8.60025 0.0626406
Si -3.95408 -0.263431 -3.22615
Si 0.695427 9.30313 4.10468
Si -7.30188 -10.3372 -1.48866
Si 6.06323 -0.38994 -8.31358
Si 4.84893 -3.24553 -8.11081
Si 5.21124 2.74272 2.57175
Si -3.74711 10.3752 1.35012
Si -5.89522 -8.47435 -5.81092
Si 0.432117 -9.80407 -8.09981
Si 4.77155 6.26449 -6.39593
Si 7.01551 5.17572 5.52582
Si 1.64993 -5.09348 7.76289
Si 10.4909 -0.734511 -8.27875
Si -6.1621 -4.09667 5.45006
Si 5.68359 -6.62245 7.49288
Si 4.01024 2.51887 -4.66542
Si 5.67281 6.64025 -9.18109
Si 10.2509 0.051856 -5.09191
Si -4.379 4.70234 5.32344
Si 1.17115 -3.57448 -2.0859
Si -8.70423 10.1179 1.37081
Si 6.84764 -9.99997 5.70088
Si -4.13522 -4.29595 -6.12057
Si 9.09257 9.16884 4.77163
Si -1.94418 8.25844 4.66537
Si 5.4553 -3.13812 4.34684
Si -7.85323 -9.27351 6.53074
Si 4.24962 -1.45255 2.08113
Si 0.80129 7.65823 7.96506
Si -2.83085 -1.55089 -5.93051
Si -9.16305 -8.07238 -5.90949
Si -9.54363 -5.27246 2.44047
Si 7.66006 8.14648 2.17718
Si 3.86259 9.25379 -6.22793
Si 6.8845 -0.6195 0.980898
Si 3.40677 -10.1833 -0.853454
Si -9.01979 -6.36808 -1.16864
Si -9.19431 -4.29411 5.46871
Si 8.46332 2.16815 -5.86007
Si 4.30555 2.26467 -0.398264
Si -2.50119 -7.32682 6.00059
Si -3.46666 -7.152 -7.25367
Si 9.43849 5.07879 3.29908
Si -9.84632 3.89926 -6.24304
Si 1.76312 4.68969 -3.94259
Si 4.96522 -6.64634 -3.79655
Si 6.19317 3.30654 -2.48455
Si 1.0702 5.59016 5.63613
Si -5.65613 -7.25998 5.44277
Si -7.07655 0.52635 0.222529
Si 3.3971 -4.22844 -4.32248
Si 10.2468 -1.57711 5.66454
Si 10.3752 -5.39304 -5.8895
Si 3.42258 -9.17762 -4.55458
Si -9.87895 5.54049 7.69571
Si 0.141669 -0.842607 -6.26053
Si -1.21257 7.81127 -0.698305
Si 9.66275 8.34919 7.69042
Si -5.18253 -3.09356 2.59812
Si 5.08239 -5.88465 -0.623852
Si -5.13382 6.97663 -4.59926
Si 0.779219 -0.573835 5.19967
Si 0.36923 10.4777 -0.699137
Si -5.65467 -1.70254 -6.59321
Si -4.1981 10.1062 -4.70968
Si 9.05178 -3.54688 -7.85692
Si 10.4596 7.27366 -2.78986
Si -3.81396 -5.8036 1.34681
Si -5.32222 -1.8496 -1.05234
Si 5.3345 9.18966 0.774854
Si -3.86283 0.414136 6.99008
Si -5.79976 2.38953 -3.488
Si -5.38521 6.0247 2.73621
Si -2.37886 6.28837 -3.22354
Si 1.8405 3.70411 0.7734
Si -7.75018 4.35647 2.51138
Si 4.79958 2.48564 -7.75121
Si -5.51268 -8.1828 2.42442
Si 1.59283 3.33685 7.7444
Si -0.7371 -0.342211 1.20734
Si -2.94048 -7.00677 -1.44794
Si -10.288 4.44996 -2.00944
Si 7.11451 -5.71698 4.75407
Si 6.77661 7.44451 7.61161
Si -2.04462 3.70317 -6.2523
Si -9.29361 1.03787 6.70867
Si -10.3092 0.15002 -0.126077
Si 8.9735 -9.09076 -6.7926
Si 8.39448 1.34639 -8.90579
Si 5.95593 9.58827 -8.69501
Si -7.67677 1.30962 3.09276
Si -2.90936 -10.4576 6.36466
Si -7.78524 5.45955 -0.368766
Si -9.90565 -0.864501 2.74319
Si -0.771611 2.51318 2.05315
Si 0.904491 -0.86961 -3.19681
Si -9.10746 6.23592 4.60331
Si 7.59596 0.873291 3.70486
Si -7.26491 -2.26569 -4.03287
Si 6.84957 -5.6302 -8.49732
Si 1.24496 8.40593 -7.45876
Si 6.29198 -8.44996 -8.70929
Si 1.54987 6.46191 -0.0371015
Si 3.85664 0.140394 -2.75794
Si -6.55973 -4.56228 -2.03361
Si -9.54555 -8.73352 -2.96206
Si -3.68638 2.10866 1.52478
Si -4.98905 6.67725 7.71804
Si -3.11761 7.55817 1.81792
Si 2.58459 -7.3839 0.493181
Si 2.80841 5.91859 -8.55055
Si 7.73918 8.78292 -3.50127
Si 9.86147 -6.41799 5.85113
Si 7.38736 4.26169 -8.8629
Si -10.4683 -9.81319 7.95841
Si -3.67956 -2.76501 6.69831
Si -5.01441 1.86507 4.47268
Si 6.99643 -3.40911 -0.507462
Si 3.22535 -8.16179 -7.57665
Si -0.824014 1.49352 6.89777
Si 4.00901 1.29539 7.31039
Si -1.3014 -6.74931 3.10299
Si -8.56623 -7.96092 1.52463
O 10.0843 -9.25709 -2.37392
O 5.61204 -3.13103 -6.64792
O -1.83911 -6.13534 6.85833
O -2.80941 0.23502 -2.19718
O -9.53647 5.80615 6.08486
O 0.131765 -4.89497 8.0518
O 5.80288 8.21574 -9.51176
O -9.7782 -3.13728 -2.64115
O 2.55333 -7.8615 2.06624
O 7.77162 9.73682 5.54592
O 3.28571 -3.15347 -7.96172
O 10.1135 -7.65983 4.90018
O -2.5942 -7.46048 -8.63912
O -4.49073 -5.12362 -4.75777
O 8.11806 -8.28492 -5.66733
O 3.22319 9.29965 6.62468
O -2.10957 7.6185 0.63936
O 3.47117 2.79881 -8.61006
O -2.23871 -10.2451 1.7111
O -0.357696 8.24427 4.44858
O -4.88958 -7.89403 -6.89306
O -6.40149 7.24338 2.62771
O -0.104178 0.142934 -2.55707
O 4.39109 2.53038 -6.19487
O 1.09385 6.93282 6.56534
O -1.35746 6.69058 -4.49065
O 8.02683 -4.545 -8.7149
O -5.29841 5.85697 -5.76103
O 4.8402 -8.22206 -8.07371
O 2.81595 2.71379 0.0606984
O 9.76169 -2.17356 -8.39195
O -10.4105 -5.72458 -0.603661
O -7.68285 -3.83266 5.83023
O 2.94886 -2.10236 1.51961
O -5.6721 -3.46796 4.05513
O -8.38159 -9.56584 -2.28195
O 4.14757 6.13156 -9.42077
O 8.71799 -5.51887 5.12735
O -0.820858 7.57455 8.24107
O 7.21688 0.325112 -9.25719
O 0.312676 -4.82072 -1.60868
O -2.87392 -2.77397 5.27297
O -2.79453 -10.3136 -5.32085
O 0.500714 3.95582 -3.25736
O 4.15778 1.14495 -1.52388
O 8.41639 4.95916 -7.83652
O -6.31151 -1.56655 -5.07886
O -10.2448 -1.08305 -1.19739
O -3.82827 0.584099 1.11779
O -0.657123 9.31012 -0.795973
O -0.33061 5.03002 5.40921
O 4.6417 -2.68575 8.59035
O 1.75457 0.486946 4.36316
O 3.41516 -8.58849 -6.0441
O -7.12536 9.2432 -2.18352
O 1.18367 -6.81341 -0.177589
O -8.94092 -0.669839 -8.66235
O -2.51945 7.57932 3.33667
O 6.27008 -6.28709 6.05267
O -10.387 1.66149 7.74046
O 6.66175 9.36003 1.76887
O -1.30408 2.33071 -2.23902
O 6.73339 -6.97431 -9.27417
O 5.58371 -4.60069 -8.75622
O -7.07378 -8.22737 2.06987
O -0.446484 -8.96066 -9.09101
O 3.55585 5.56648 -7.09699
O 2.78251 2.26821 7.76377
O 4.44242 -8.20612 -3.83561
O -4.90002 -6.91159 1.66084
O -10.4429 6.16838 3.66445
O 1.09021 10.1238 5.49965
O 7.40588 0.502273 -0.0897715
O -4.35094 -1.73358 2.50274
O -4.13392 10.3991 -3.09464
O -3.0075 -3.13608 -5.91113
O 8.11289 2.87577 -9.56171
O -8.41839 -4.57132 1.55715
O -6.48893 -2.87077 1.66359
O 5.78928 6.53453 -7.58931
O 8.81791 0.830932 -5.0486
O 6.05714 -9.99902 -9.31688
O -4.94135 1.08283 -3.69983
O 5.43843 -10.4882 6.16688
O -0.831957 -3.75207 5.99714
O 0.170795 7.0624 -0.54705
O 6.87172 -6.20088 -6.92127
O -9.43756 -6.44724 -5.72744
O 2.38373 -0.583056 -2.75231
O 0.415633 -2.35607 -2.79833
O 6.17899 6.66989 8.89376
O -7.36762 2.1561 -3.36742
O 8.43104 8.31671 3.60284
O -2.85015 4.38992 4.97859
O 0.359923 -9.68201 -2.02262
O 10.3391 7.55023 -1.10964
O -7.88404 9.45079 2.5716
O -2.20245 2.60045 1.33371
O -5.31127 -3.31764 -6.58184
O 7.21785 0.290127 5.11095
O 1.87527 -9.23164 -4.10178
O 5.23839 2.93493 -3.65778
O -9.61779 1.02845 -4.3224
O 5.71456 -4.37235 -0.298733
O 4.0337 6.38247 2.7884
O -9.29605 -4.70023 3.92829
O 4.38214 -7.62998 7.17377
O 5.53192 5.30915 -5.36547
O 0.0195573 -9.69311 0.647622
O -4.20675 0.842862 5.44696
O -1.96317 -6.89933 4.52955
O -3.92344 -1.25683 7.15755
O 2.51629 -6.70593 -7.88178
O 4.03449 -3.26153 5.02938
O 3.7677 1.0272 -4.12065
O -3.62551 -5.5333 -7.0651
O 3.81659 -10.4195 -2.41049
O 2.70058 3.44672 -4.41235
O 7.3256 2.33743 -1.93122
O 1.17018 -4.49229 -7.73508
O 1.85147 -1.70302 5.48834
O 0.749362 -7.17093 -2.67364
O 2.70553 5.65556 -3.07092
O 5.36995 1.95786 7.559
O 2.2784 -4.15205 -3.11848
O 0.765453 2.50609 -8.71724
O 4.10577 8.9016 1.72247
O 8.19704 1.64188 -7.31973
O 4.28064 7.72295 -5.86838
O 6.83764 -7.25629 8.40838
O 5.1579 3.44312 -1.26193
O -6.50948 7.12887 -3.68573
O 5.25435 -0.760502 1.09867
O 6.03224 3.47966 -8.18117
O 9.912 2.90658 -5.90834
O 7.99671 2.6776 8.04682
O -2.33394 9.80497 4.93733
O 10.3925 9.66698 8.30354
O 7.79826 -8.71826 -7.94278
O 1.91256 4.7505 -9.07532
O -3.58371 -6.06192 -0.258174
O -5.09772 -3.56657 6.5542
O 4.91601 -6.15369 -2.26875
O -6.16084 4.64786 2.43926
O -8.5454 5.1526 8.47279
O 4.01541 -0.118614 8.11651
O 2.92784 -7.99962 4.89333
O -3.90008 6.43759 -3.71959
O 1.77661 4.37707 6.54258
O -10.0618 -2.99166 5.79427
O 4.63855 -3.40277 -3.68864
O 6.6907 -2.91692 -2.04143
O -6.71573 -8.16362 6.32814
O -7.45792 6.87555 -1.11343
O 8.61535 -6.79643 0.560147
O 4.48939 8.9829 4.36518
O -7.07336 10.3034 6.47909
O 3.90649 -5.69832 -4.61657
O -8.42601 -2.72588 -0.304152
O -3.38021 -6.59502 -2.97697
O 4.92921 2.17931 1.09693
O 5.0082 -0.986854 -2.7989
O 10.2041 4.28693 7.86421
O -8.20283 5.09408 3.8666
O 10.1072 -4.63064 -7.31346
O 3.96627 10.1987 -4.81101
O -7.79682 -5.28744 -1.27762
O 7.41672 -0.15764 2.46677
O 0.168703 0.585363 -7.05549
O 2.27948 -9.24418 7.0884
O 9.12788 1.326 4.01103
O 10.2047 -1.39701 -4.37863
O -4.3483 -4.4079 1.94425
O -4.05105 -1.76109 -0.0325662
O 3.95602 2.27383 3.46075
O -1.3659 -6.84689 -1.23877
O 6.54494 3.89716 6.33372
O 7.3823 6.30455 6.62119
O -9.2895 -9.44262 1.66389
O 0.0651428 -5.9039 3.10514
O -10.4949 5.38559 -6.32387
O 10.3495 -0.362843 1.37608
O 0.194374 7.47774 -6.56244
O 9.31555 -8.9299 8.60275
O -5.90461 -9.58367 -1.59995
O -2.47116 -7.94019 -6.11532
O 3.68869 -6.22946 0.164705
O 10.4762 -0.236454 -6.69705
O -6.14061 3.74949 -7.31548
O -3.49551 -8.49601 -1.56225
O -0.504556 -9.67726 -6.72909
O 0.990751 5.5912 -5.05935
O -1.24237 2.45159 5.6703
O -0.867048 3.43314 3.37011
O 4.73083 9.67706 -7.50943
O 8.97735 10.3275 -6.54347
O 10.178 3.67995 3.54565
O -9.30048 -7.22152 -2.57466
O 7.37827 3.25561 -5.4198
O 8.74498 -1.51299 6.27019
O -7.53723 -8.29 -6.16348
O -8.03815 2.76286 2.59123
O -5.07992 3.28074 5.23888
O -5.75493 -5.83282 -2.5061
O 7.24784 -2.11074 0.446412
O 5.59461 8.09349 6.80601
O 3.06994 -8.65453 -0.38242
O -1.09565 0.388802 -0.232916
O -0.579911 -1.40222 4.68464
O -9.82274 -0.389865 6.30591
O 0.506972 -1.33346 0.984272
O 2.29052 9.10613 -6.46689
O 0.192232 2.53023 7.65269
O -2.0232 -1.15187 1.56288
O 1.99756 -9.16142 -8.07251
O -2.35948 9.60147 7.56552
O 5.14572 6.23724 -1.854
O -4.13751 -7.21428 5.96064
O 7.04414 -6.87853 3.63818
O -8.89718 -9.26074 7.79691
O 10.39 5.74095 -2.98844
O 8.97871 5.08887 1.74044
O 7.60986 8.54285 -5.18167
O 6.63595 6.9227 2.45888
O 7.99189 5.65918 -5.54174
O -2.47871 -6.18761 2.13824
O -6.91833 -3.69267 -3.3945
O 8.33698 -4.30562 -0.293764
O 0.509993 3.01649 1.25556
O 5.53801 4.37063 2.41347
O -9.79256 -5.60707 6.1561
O 1.60735 -3.87227 4.09263
O -8.9057 3.45803 -7.39868
O -10.0075 3.03516 -2.79177
O 5.98268 9.23302 -3.51348
O -1.37779 -1.15981 -6.29119
O -8.86249 -9.22467 5.24504
O 0.60125 9.61406 -8.23212
O 10.2825 -1.34385 4.00073
O -0.00583352 10.2748 3.01141
O -5.10175 1.12114 7.80077
O -0.941986 -8.254 2.6759
O -7.95334 -1.52295 -2.68726
O 3.18532 -10.1098 3.32676
O -6.53522 1.44535 4.19495
O -6.6874 3.25264 8.56531
O -6.33221 -0.7501 -0.386576
O 3.73062 8.12398 -2.90028
O 1.14481 9.24168 7.8751
O 7.00121 -8.50667 1.60357
O 5.1792 0.9214 -8.07041
O 1.86278 5.7045 4.21028
O 9.74483 0.437779 -9.07419
O -9.8311 9.0845 0.924013
O 6.80355 -9.40475 4.24349
O 5.79188 5.66361 4.56413
O -4.49506 10.2497 6.24462
O 2.62108 -3.62801 -5.6202
O 6.34226 -4.48085 4.29059
O 7.48447 -8.96937 6.74144
O 7.4161 7.63495 -2.24838
O -1.3411 2.58749 -7.22629
O 8.09289 8.3489 8.07816
O 7.9277 -8.93068 -0.798695
O 9.58981 4.46477 -0.842515
O 9.09756 -6.96945 7.14971
O 2.83502 6.87604 -0.809453
O -5.52995 -7.9474 4.00937
O 7.03608 4.53706 -3.21097
O -5.50496 -7.52012 -4.55097
O -4.91727 5.72844 4.21095
O 9.85633 8.50397 6.04109
O 7.94406 3.07296 0.345299
O -3.5973 3.92157 -6.35883
O 2.05629 -6.57555 7.08216
O 8.77343 8.07581 1.0343
O 9.39643 2.91691 5.9347
O -0.0994689 -6.61596 -8.66671
O -4.66093 8.5412 -4.87792
O -9.44449 -8.81576 -4.5544
O 5.18153 -2.47567 2.91104
O -0.577392 0.86592 2.26014
O 8.97721 -6.10262 -5.51683
O -5.15149 3.11796 -2.12621
O -4.01163 8.8463 1.75414
O 1.53487 6.84259 9.02432
O 9.02426 7.56555 -7.03431
O 8.06162 10.3001 -2.86089
O -8.88947 0.302284 3.25712
O 9.47672 9.94697 -0.654054
O 10.0959 -9.68814 6.39229
O -8.25201 5.16268 1.18563
O 2.09549 -4.13776 6.56451
O 6.53803 2.10738 3.28477
O 8.25435 5.08998 4.41981
O -2.61378 -3.71756 7.57309
O -7.74393 10.3551 0.0467945
O 1.06061 -1.9776 -6.97819
O 3.93445 -0.366422 3.29645
O -1.60819 3.28311 -4.71422
O -4.7459 -9.57653 1.96894
O -7.83244 1.24142 7.35197
O 1.84788 -2.84855 -0.761204
O -5.31714 -9.90345 -5.34048
O -9.03889 7.75203 -3.07693
O -6.07284 5.95842 8.64018
O -6.1039 -5.73746 5.34881
O 6.74161 5.51538 -9.61314
O -9.268 -6.8249 2.36415
O -6.48239 1.93712 -0.31904
O 8.13041 -2.96995 -6.62729
O 5.80642 4.18959 8.73829
O -6.46358 4.5784 -0.475962
O 7.33637 5.58731 -0.425404
O -5.60187 7.94961 6.8821
O 2.46892 4.54462 1.95686
O -8.26888 7.56214 4.38709
O 2.03025 10.0893 -0.60795
O 3.84736 5.59282 9.69336
O 6.33323 -0.915938 7.47485
O 10.4905 -8.5014 -6.91356
O 6.47118 -6.59753 -4.39486
O -8.93587 4.84833 -1.25053
O 7.10335 9.17546 -7.63605
O 10.3918 6.97426 8.07653
O -4.10124 6.30605 1.83596
O -6.54181 -1.02254 -7.64211
O 9.35067 8.16063 -3.54657
O 0.977078 -3.75911 1.65947
O 3.88919 0.883728 5.70888
O -5.64198 3.39659 -4.78647
O -4.17451 -1.11695 -6.79551
O -4.58495 5.45614 6.68754
O 10.0461 -4.95764 1.74628
O 0.115021 0.284946 6.43275
O -9.58096 1.92792 5.34407
O 2.76293 -4.5895 8.84831
O -3.92963 10.4674 -0.25396
O -3.19479 -0.885982 -4.47225
O 2.10576 7.28661 -8.24865
O -4.19508 2.10813 3.10695
O -0.911898 -3.67276 3.43342
O -6.14149 8.98732 4.52094
O -8.83525 3.51234 -4.99331
O 9.96357 10.479 4.16435
O -4.85654 -1.30093 -2.45475
O -4.51685 3.06162 0.546819
O 5.9675 7.95553 -0.222183
O -2.29218 7.56725 6.02473
O -1.93111 4.80473 -2.87244
O -8.98313 -2.13719 2.10868
O 0.704992 -0.660561 -4.77368
O 6.36882 -2.16006 5.22956
O 4.72066 10.2631 -0.15199
O 2.08847 8.66211 3.50952
O 1.59617 6.71215 1.56798
O -3.62206 7.3818 8.23529
O -7.33488 1.42551 -8.0376
O -2.37942 -8.94813 6.31185
O 1.38286 4.91178 -0.242828
O -1.21893 5.10846 -6.46439
O 10.418 -4.14164 -4.89229
O 5.31631 -1.77834 -8.75006
O -5.76226 -3.39702 -1.26459
O -8.70714 0.466395 -0.0764338
O -2.31042 0.861311 7.30287
O 9.71432 1.28677 -0.598617
O 6.68077 -0.89288 -6.88155
O -8.56726 -2.50527 -4.91076
O 4.82757 -8.18806 3.07573
O 5.13039 -5.22045 8.12736
O 1.71286 4.37011 8.98378
O -0.767398 -8.83583 -4.29677
O -2.08169 7.2042 -1.93499
O -8.66323 -7.4636 -0.00190886
O -6.94065 0.540954 1.78347
O 6.17053 -6.9742 -0.253229
O 6.64526 -2.20081 -4.51476
