591
Atoms. Timestep: 1790001
Si -4.31067 -9.85184 -10.5957
O -4.21477 -9.40516 -12.1717
H -4.13809 -8.47012 -12.3211
Si 2.11162 -8.44573 8.14571
O 2.53013 -8.34708 9.76982
H 2.8703 -7.50096 10.036
Si -0.672588 4.22657 -10.0805
O -1.05244 3.87846 -11.6878
H -0.672065 4.48008 -12.317
Si -8.90866 -8.91007 9.68293
O -9.14483 -8.35424 11.2763
H -9.77857 -7.65 11.3465
Si -1.56984 9.95488 -9.94422
O -0.867334 -9.66257 -10.7388
H 0.00955525 -9.40106 -10.4835
Si 2.04377 2.77623 -9.32949
O 2.44845 1.58406 -10.492
H 1.9525 1.57303 -11.3022
Si -9.50439 8.88072 9.86519
O -9.05462 8.56765 11.4933
H -8.15813 8.72417 11.7659
Si 1.97225 9.33208 7.98442
O 2.27787 9.29241 9.69172
H 1.71084 9.82625 10.2358
Si 8.67637 -5.31998 -9.04538
O 8.84654 -4.05129 -10.1241
H 9.43803 -3.3626 -9.84424
Si 8.63044 -8.24921 -10.2502
O 8.84679 -8.25173 -11.9455
H 8.09951 -8.16531 -12.5257
Si 7.66549 9.05401 0.368274
Si -8.55894 -3.43005 3.06539
Si 5.60627 -1.20759 -5.01761
Si -0.714168 1.95394 -5.48572
Si 9.89892 -7.27599 -1.43354
Si 6.55021 5.47872 3.13402
Si 3.76351 6.9874 6.57996
Si -1.24993 -9.74242 -7.09203
Si -7.86623 -2.69343 -4.71402
Si 9.38426 2.4118 4.68704
Si 6.10564 0.252883 5.0336
Si 9.00165 9.10184 3.0839
Si 0.699788 -9.18978 -1.9241
Si 1.7285 0.856858 -6.79521
Si 4.12307 3.19007 -3.20855
Si -4.94749 5.56132 -8.24444
Si 1.57333 -10.4407 2.87303
Si -1.42855 -0.458954 1.97324
Si -0.880699 -7.26578 7.73277
Si -8.72276 -8.66692 -3.02247
Si -3.62635 6.87677 1.38122
Si -7.21739 3.80122 5.2001
Si -5.67238 1.2526 4.65574
Si -5.1817 1.24934 -4.92295
Si 1.04682 5.08269 2.60631
Si 0.257016 -6.80204 2.5224
Si 0.198436 9.20358 -3.60657
Si 8.45059 10.0736 -3.97178
Si 4.53478 8.06997 0.704657
Si 0.327322 7.44556 -1.1904
Si 4.12776 -8.57567 3.47993
Si 4.63868 1.51095 -5.87733
Si 4.82846 -7.22911 -2.32192
Si -3.86982 -5.14546 -7.55334
Si -6.18325 4.61108 7.88732
Si 9.54033 6.19243 3.90215
Si 7.94274 -8.76297 0.691587
Si -8.1764 0.433192 -4.77999
Si -2.63557 8.88935 6.18489
Si -7.79541 4.40741 -3.68401
Si 2.40301 -4.18762 5.63998
Si 8.5098 -6.91162 3.05137
Si -4.25611 -5.89731 -4.48276
Si 6.28173 0.394577 2.17956
Si 6.15165 -5.07519 -7.06344
Si 4.17572 -6.78856 6.20526
Si -2.33474 6.96728 -7.0959
Si -1.75105 -6.33705 4.94611
Si 1.395 -5.18586 0.375658
Si -8.24278 2.34576 7.63244
Si -8.44823 9.47884 -4.185
Si -8.09858 0.421459 -1.55894
Si 2.83226 -5.48113 2.93906
Si -6.34505 -7.43686 8.55705
Si 4.28849 3.87045 -7.75672
Si -2.52207 9.31074 -4.97521
Si -4.80182 8.4629 3.7925
Si -4.18632 -9.61056 3.404
Si 6.65956 6.25054 7.86097
Si -9.81236 7.51909 -6.37712
Si -7.7055 8.24908 5.06568
Si -4.97654 -1.92022 -0.0830795
Si 9.39009 4.96183 -5.91795
Si 4.87021 6.08646 -4.27838
Si 9.89561 -2.27452 1.90539
Si 9.31693 -1.43255 7.72364
Si -7.03886 -10.4768 -9.14582
Si 2.82665 -10.4639 0.102029
Si 8.82157 8.41113 8.41686
Si -5.52396 -7.64145 1.24797
Si -8.91168 -3.52246 6.25156
Si -8.15597 -0.466067 3.51461
Si 1.93256 2.62153 4.39752
Si 8.5649 -10.0566 6.61611
Si -4.85255 9.79872 8.15504
Si -6.77564 -7.2928 -4.88965
Si 4.82428 -8.02554 0.539729
Si 0.958933 -1.94935 -6.38603
Si 3.46071 -4.6561 -3.39598
Si 6.5941 2.15955 -1.70913
Si 9.91515 3.09266 7.68146
Si -7.52389 -2.76389 -1.55065
Si -3.91841 0.48817 7.35489
Si -1.84126 4.26395 1.85627
Si -7.20976 -6.05727 3.31361
Si -4.48273 -0.322626 2.44668
Si -1.93236 3.25772 4.9633
Si 3.79089 -1.65534 4.56783
Si -9.79838 0.309311 0.958252
Si -0.551451 5.02783 -5.25504
Si -4.20832 -0.497559 -2.70747
Si 3.12579 0.43925 2.59138
Si 7.68958 -7.86264 -3.43767
Si -8.11407 8.75454 -1.10573
Si 2.71639 5.68431 0.0722735
Si 5.61769 3.44182 8.159
Si 2.40656 8.18686 -8.01691
Si -8.29184 4.57701 0.626829
Si -3.27905 3.56087 7.65343
Si 0.476783 7.91337 3.8719
Si -2.21207 -3.26971 0.745859
Si -6.1884 -4.63777 7.60792
Si 8.95962 3.3601 -3.28872
Si 5.52491 8.99341 -4.51246
Si 6.37875 -0.872982 -0.655698
Si -3.61887 -8.56158 8.61095
Si 3.92858 -9.32674 -4.3333
Si 0.89091 -6.28304 -2.53115
Si -8.5977 5.78126 3.25259
Si -10.2081 5.30106 -1.82729
Si 6.41561 10.4186 4.42946
Si -9.79901 -7.35038 4.61364
Si 4.70323 7.99332 3.77576
Si 7.10664 -10.0817 -8.31645
Si 6.96603 -5.62923 5.48279
Si 6.34871 3.17757 5.09214
Si 7.6145 -4.38756 1.15078
Si -9.96104 10.4922 4.5277
Si -3.68463 -3.11921 -4.04562
Si -9.70205 -8.94388 -8.57662
Si 9.73264 9.97945 -6.93691
Si -0.180548 7.48444 6.95265
Si -5.77793 8.89112 -5.56899
Si -10.3392 -4.50249 -4.74931
Si -5.25494 -8.97301 6.32317
Si 3.98533 -1.70667 -2.40498
Si 1.04275 -1.13245 -3.24201
Si 6.23721 -7.96166 -6.13801
Si -9.59646 -5.89511 -7.49361
Si -0.361323 4.41617 7.41865
Si 10.3 3.02862 1.84055
Si -0.984916 4.7859 -2.10307
Si -7.10196 7.61186 -8.10377
Si -2.08544 -5.25766 -2.53818
Si -1.23877 10.4029 4.16054
Si -2.15757 -2.56542 -6.80697
Si -4.29827 -2.28095 4.95192
Si 9.91503 8.32817 -1.69676
Si 9.30469 -4.55124 7.30673
Si 7.38763 1.00527 7.91078
Si -5.56458 7.12028 -1.04014
Si 0.306481 -2.67678 -0.967669
Si 5.49464 8.42677 -7.67382
Si 3.75621 -3.35963 -6.31533
Si 5.38914 -4.02379 3.3646
Si -2.94726 -6.20375 0.416443
Si -3.00093 0.495046 -7.08543
Si -6.4439 -9.70576 -1.03382
Si -0.235865 7.34108 -9.48525
Si -1.13845 -8.79346 0.628926
Si -3.98654 9.67698 -2.09258
Si 6.59395 5.66307 -6.98212
Si 2.41357 5.67875 -6.03423
Si -1.62695 -1.5103 6.56441
Si -6.89696 -4.78791 -6.7977
Si -3.21523 3.24074 -8.39605
Si -3.36145 -7.94202 -8.26848
Si -1.49801 0.868476 -2.69988
Si -5.75649 -1.86347 7.77049
Si 10.1254 -7.45669 7.6199
Si -7.06948 7.5705 8.19762
Si -5.44958 6.21054 -3.93706
Si -4.65781 -5.40774 5.02613
Si 7.27437 3.24684 1.17796
Si 9.84798 -0.660809 4.52464
Si 1.56848 -10.5037 -6.03618
Si 1.67212 3.0931 -1.34744
Si -3.01876 2.92755 -0.731912
Si 0.935054 0.311936 0.157663
Si 7.67231 -3.60936 -4.72881
Si 2.72353 4.02204 7.11852
Si 7.95754 -3.47874 -1.64367
Si -1.74329 9.26366 0.194154
Si -6.21626 2.96323 -1.14338
Si -5.47307 -9.534 -6.52175
Si -8.68751 -0.853006 7.68482
Si -10.1602 -4.50097 -1.60729
Si -9.86888 2.65177 -5.17934
Si 9.29526 5.89052 6.81766
Si -0.525015 -4.34518 6.84132
Si -4.44328 4.24373 -5.72613
Si -0.522589 0.568698 4.73899
O -5.69517 -10.2578 7.12103
O -1.67768 1.64245 4.95193
O -6.09333 -8.67123 0.16544
O -4.57493 4.38363 8.10533
O -10.2087 5.79245 3.04313
O 2.6382 -9.62449 -5.2133
O 9.94748 8.69771 9.53222
O -4.44706 -1.85392 -3.54407
O -0.354484 5.85458 -10.0621
O -6.17638 8.1521 -6.91667
O -3.26224 1.61291 -8.22935
O -8.78861 -1.90368 6.42405
O -6.74574 -7.01419 2.09513
O -2.849 -1.96245 5.55894
O 1.66789 1.95518 -7.97677
O 1.23049 -3.72527 -0.335112
O -3.65116 -2.74059 0.219973
O -5.45179 4.84442 -6.87174
O -2.91913 -3.87447 -7.53422
O -3.00355 -0.0737331 1.86969
O -7.46323 7.97864 6.66904
O -7.98292 5.70951 1.7075
O 9.1875 -3.94972 -5.08273
O -4.71957 6.58893 0.231006
O -2.17329 1.73823 -1.48642
O -0.556589 -5.69464 -2.69777
O 1.63153 6.61215 -0.630743
O 0.218655 3.78875 -1.66375
O -2.58886 -0.408152 7.32111
O -7.04554 0.266634 4.41587
O 3.33218 3.6644 -9.01181
O -8.26434 -4.98851 -7.63416
O -5.36578 -1.99819 6.20637
O -4.58517 9.89211 2.96845
O -4.37586 4.26187 -9.06894
O 8.30862 -8.32445 2.24712
O 8.58188 8.58229 -0.861293
O -1.19501 -7.27829 6.16255
O -1.13959 -3.16365 -0.429511
O 10.2771 8.48939 -7.18035
O -2.42738 3.26399 0.773715
O 8.18791 -5.70333 2.00286
O -1.47128 -10.3553 0.852321
O -9.34 8.47033 -5.11886
O 1.3371 1.64619 -0.709104
O 4.36427 2.50342 -4.62953
O -7.57372 -4.11543 6.87171
O -9.30783 0.608263 -0.543333
O 9.25432 10.1847 -5.43723
O -6.50178 -10.0049 -7.70062
O -6.89075 5.50565 -4.39303
O -7.04818 3.30176 8.2449
O -8.35311 7.08801 4.19897
O 2.74308 -5.22482 1.33449
O 9.88781 5.77274 5.38752
O -6.79143 3.67016 -2.59769
O -9.32598 -3.26674 -4.88438
O 9.84749 10.4627 5.64932
O -4.91366 -0.545239 8.10749
O -8.98054 -3.77555 4.63175
O 6.99816 -2.09523 -4.90552
O -4.62813 -8.54382 2.30169
O -0.383052 -8.85307 -0.774622
O -8.63406 9.63281 4.84968
O 5.92882 5.73043 -5.47049
O -3.48783 1.99131 7.83224
O -3.15015 10.0257 -10.2984
O -1.05723 -2.86532 7.15529
O -9.61068 -0.541694 4.21772
O 6.70668 -4.54761 -5.65213
O 6.63335 0.57079 -1.39096
O 8.60884 8.54264 1.68742
O 8.2945 -0.319408 8.29076
O 10.3815 -1.04391 1.02804
O -2.39126 4.20493 -1.5385
O -5.05757 -10.172 -1.74678
O -4.80913 -7.63848 9.13564
O -7.31597 8.92715 -9.06425
O -1.80765 3.79722 -9.01877
O -5.49396 -4.7571 -7.68912
O 4.84115 2.40938 -7.19636
O -8.33813 0.745769 7.58511
O 3.06972 -2.75762 5.46024
O 8.6964 -3.20859 1.31571
O 7.50898 -3.87042 -3.16353
O -10.0929 -4.85849 -3.1946
O -10.1929 -4.06404 6.91429
O -9.29732 3.54587 1.35676
O 4.48134 -5.7865 -3.06124
O 9.98436 -6.86261 3.72991
O -10.0102 -5.61482 -5.89219
O 6.59057 -0.619613 0.941351
O 3.93538 -8.40884 -3.00921
O -9.05244 5.07354 -2.91105
O -7.25314 10.0378 -0.574793
O 6.0131 9.77934 -8.33008
O -7.66945 -4.65981 2.66887
O 10.4235 6.17142 -5.97121
O -7.09318 9.46093 -4.96962
O -3.51896 -6.36094 -8.48388
O 0.461325 7.56324 5.46291
O -8.5538 0.142651 2.01903
O -0.900345 -6.64075 3.65395
O 4.84081 -0.69651 5.20132
O 6.55959 4.59058 1.73848
O 6.24996 4.89905 8.74611
O 7.36495 -2.00801 -1.23594
O 5.66259 1.78625 4.7687
O -4.59539 -4.38713 -4.17869
O -6.26241 8.50755 4.39342
O -8.02419 -1.11589 -4.97517
O 7.04023 2.88452 -0.35816
O -0.934305 4.86708 -3.71493
O 3.86106 7.30653 5.00513
O 3.56605 9.15436 -0.0382442
O -1.59931 5.94142 -6.10585
O 6.93083 1.94806 1.99338
O -6.86719 -6.17034 -5.98716
O -8.42795 8.00038 9.03056
O -8.40691 -6.72825 4.17593
O -5.8355 8.63862 8.69357
O 2.27278 -2.89576 -6.66433
O 4.08718 6.62338 0.162936
O -1.69582 7.72047 6.63579
O 3.99959 3.53502 8.01773
O -6.30684 -7.85587 6.93412
O 4.98582 -8.66261 -5.32065
O 7.67541 9.82096 3.67198
O -1.94854 -8.39276 -7.62761
O 8.88058 4.55922 -4.43227
O -2.08556 -7.88622 8.63033
O -9.97754 -8.14017 -2.17369
O 3.61717 -4.14224 -4.91104
O 5.81578 6.86991 3.32754
O 2.8553 -9.56638 3.41014
O -5.12086 -5.20602 6.57328
O 8.4258 10.2218 -7.80701
O -4.85248 2.87561 -4.98916
O -4.36376 -3.91266 4.63519
O 2.36701 6.88435 -7.0851
O -4.56305 2.88884 -0.893942
O -4.57104 -0.863003 -1.23328
O 1.15671 3.86981 7.60554
O 2.14712 9.59627 -7.27393
O -1.62689 10.0125 5.65408
O 9.73442 4.12363 -2.05922
O -7.13312 7.46811 -0.783664
O 4.05046 -9.43542 0.304874
O -8.01702 8.88476 -2.74676
O 9.36199 7.81238 3.89714
O -9.36694 -7.38996 -8.07734
O 4.08042 8.24916 2.28721
O 4.85872 -1.33042 -1.0895
O 0.348299 -9.72512 -6.64997
O 3.24101 4.42677 -6.64808
O 0.857283 -1.18971 -0.48839
O -9.91559 -8.13778 8.65781
O 1.93151 -5.3348 -3.2409
O 2.04463 -10.0658 7.7176
O -6.48279 4.72981 6.29936
O -1.79727 4.04253 8.11264
O -1.35885 1.81752 -4.02439
O -3.72525 8.52162 4.98853
O 2.99756 8.33137 7.24279
O 8.8861 -7.11915 -2.70071
O -2.63355 9.67193 -1.12769
O -3.36747 -6.30945 4.7442
O 4.00222 8.15217 -8.26183
O -4.48261 7.32082 2.75637
O -3.84194 -8.58602 7.06706
O 8.85379 3.56868 1.35904
O -4.47499 -1.44267 3.60945
O 5.22862 7.52938 -3.77835
O 9.60722 -3.56071 -1.57604
O -7.43845 -8.31835 9.31679
O 2.06059 0.205457 1.32564
O 9.60557 7.37032 7.41006
O 9.45857 -1.20549 6.07298
O -3.08158 3.6245 6.00333
O -7.96121 4.59557 4.08163
O 4.77809 -4.23999 -7.27744
O -3.91507 -5.84084 -6.05058
O -7.41392 -8.89574 -2.06644
O -3.555 9.33292 7.39126
O -9.71194 8.71341 -0.959817
O 5.56028 4.78675 -7.81206
O 8.45699 9.79633 7.68801
O 4.60943 4.74986 -3.36925
O 3.00162 5.61887 6.84072
O -9.40798 1.14697 -5.51142
O -2.50526 -4.7912 1.18364
O 3.6569 -3.31118 -2.54771
O -2.59026 -3.79722 -2.98757
O -0.0429935 -8.12285 1.67446
O -2.59367 -5.67354 -1.04054
O 2.5789 3.03421 -2.7227
O -0.576854 0.265039 0.864646
O -8.21225 2.90074 6.10434
O -3.79253 -8.60498 -9.63976
O -10.1574 -1.11869 8.25574
O 8.108 5.59055 3.52131
O -1.94257 -10.3523 -5.77233
O 2.27883 5.3606 1.6118
O 4.07016 -7.6457 4.79654
O -1.6518 1.02159 -6.35314
O -6.97863 1.49231 -1.08856
O -4.17569 0.571269 -5.94688
O 0.979294 -4.23461 6.42526
O 4.58604 10.1776 -3.99215
O 5.89885 4.43045 4.20168
O -4.52288 -6.59449 0.66863
O -5.42207 7.69283 -4.5656
O -5.78953 -10.2574 -10.1529
O -0.832796 -0.118144 3.37998
O 0.707155 3.48147 -9.84231
O 9.61169 4.667 7.73095
O -5.84312 -5.95742 4.17538
O 1.1176 9.47228 -4.89038
O 2.08793 -4.53146 4.02353
O 2.97214 -0.716205 3.62495
O 1.22116 7.86696 -9.04926
O -4.93593 -9.28681 4.79941
O 6.14455 8.3947 0.534071
O 0.939779 -7.82997 -2.76876
O -8.80039 -3.69471 -1.17798
O -7.00458 3.83219 -0.0270581
O -1.5259 -2.05807 1.70563
O 3.2097 0.721841 -6.14285
O -2.65619 5.62768 1.6791
O -10.2126 -9.90714 -7.33073
O -5.4712 -6.84492 -4.1313
O -0.782103 -5.58984 7.88467
O 2.58622 -0.965416 -2.75551
O 1.79508 -6.78741 3.1041
O -2.67463 -0.167566 -2.89687
O -9.55547 -8.96222 4.41503
O 5.66977 0.337267 -5.43917
O 7.81194 -10.3739 0.439632
O -7.43473 -2.93344 -3.14184
O -9.85075 -3.23445 2.20505
O 5.48203 -9.47788 3.74034
O 4.55257 -7.1348 -0.751414
O 5.24433 6.85523 7.21041
O 4.69273 0.503094 2.13967
O 6.49506 -8.11357 0.480527
O 6.32018 -7.58143 -2.6934
O -9.28812 5.07273 -0.489654
O 4.38565 -7.82841 2.08657
O -4.09907 -10.086 9.0475
O -10.4961 -5.91321 -0.864649
O -0.71409 6.22601 -1.434
O 8.12321 -4.97565 6.26262
O -2.54244 -9.79607 3.59385
O -1.38709 -4.87815 5.54755
O 0.800274 1.45447 4.75446
O 6.29387 -4.03794 2.02385
O 6.93567 0.557152 6.41672
O 10.2696 1.49427 1.38219
O 0.621108 -7.88434 7.96043
O 0.13568 -10.3672 -2.87061
O -6.58695 -5.82274 8.54642
O 6.25147 -4.41735 4.66418
O 8.10167 5.25799 -6.80166
O 0.183833 -9.96417 3.58931
O -0.758019 3.91716 5.85177
O 3.31924 -7.66665 7.27442
O 1.7631 -10.4883 1.28138
O -0.540021 -2.51414 -6.71797
O 4.64205 -2.08597 -5.98354
O 10.2338 2.90595 3.46579
O 7.64417 2.66506 -2.89801
O 8.47843 -6.73825 -9.74069
O 0.466166 -2.47001 -2.53864
O -9.02542 -10.0325 -3.84335
O -4.89508 0.744611 -3.40357
O -7.78639 -2.0354 3.23032
O -2.87603 -2.7414 -5.37306
O -9.1365 10.4815 9.56545
O -1.47226 10.3977 -8.42877
O 0.538726 8.69812 7.74948
O 8.11751 -9.48329 -3.37396
O 2.89996 1.88971 3.30172
O 7.05998 9.34765 -4.14258
O 6.18445 1.97942 8.44237
O 9.94226 -8.79608 -9.46023
O 5.78898 -6.4161 6.29651
O 7.29531 -7.61197 -4.98716
O -7.74444 -1.13783 -1.41215
O 6.72244 -0.150852 3.64116
O -4.73125 0.826976 5.93921
O -4.97257 0.968244 3.25047
O 7.46693 -4.50142 -0.470498
O -4.7783 10.1477 -5.9464
O 6.82877 -9.05021 -7.16601
O -6.08647 6.53442 -8.76002
O 9.24846 0.842746 4.43413
O 1.90125 -10.0128 -1.17053
O 6.14043 3.5369 6.6444
O -0.94793 8.80724 3.63328
O 9.44235 -1.70895 3.38273
O 10.0935 -5.38234 -8.30526
O -2.7333 8.12754 0.86888
O 8.54123 2.2081 8.02745
O -0.629425 3.48093 -5.90075
O -10.1307 -7.20779 6.16668
O 10.3591 10.0162 3.18514
O 0.623509 8.14516 -2.55043
O 7.20188 -10.0461 5.76235
O 9.01223 -8.04439 -0.277718
O 9.97436 2.73651 6.12285
O -8.17124 -7.54854 -4.07298
O -4.39102 -8.52061 -7.16602
O -0.455514 -0.564265 5.92968
O -6.15441 2.72309 4.74241
O 3.35925 -5.3863 6.13655
O -8.4992 7.27516 -7.34507
O -6.40419 -8.6947 -5.5813
O 8.9889 -3.10428 7.9171
O -4.78716 8.39858 -1.57575
O 4.32242 -5.19119 3.27938
O 7.44506 -9.19484 -9.6703
O -4.25064 5.38835 -4.53337
O 2.52858 4.20829 -0.505013
O 10.1497 6.74783 -1.89814
O -1.22626 8.78085 -4.15212
O 7.97455 3.0034 4.87393
O 10.1123 2.4481 -3.90024
O 4.93084 -1.24632 -3.56043
O -5.5596 -3.34552 8.32464
O 0.312831 -5.60477 1.41862
O 5.40419 8.71216 -6.08546
O -5.27537 -1.00163 1.18973
O 0.647086 6.51347 3.18004
O 0.94593 5.3969 -5.57764
O -2.60199 -1.07977 -7.42061
O 4.67739 -2.6075 3.57963
O -9.67117 2.69799 8.25323
O -6.68451 6.02551 8.41954
O 5.34601 9.23013 4.4945
O 1.3336 -6.16393 -0.856551
O 3.41716 6.25264 -4.9526
O -1.90699 3.69633 3.38611
O 0.774068 1.4106 -5.56943
O -5.56436 6.24446 -2.32384
O -0.0585615 -0.00284507 -2.74808
O 6.42962 7.11676 -7.70545
O -2.15244 -7.60713 0.613255
O -6.72836 1.03492 -5.21835
O 1.15719 -0.587968 -7.2071
O -2.99434 -6.13498 -3.61266
O -3.63908 6.45595 -7.80764
O 7.50239 -6.66931 4.30711
O 9.48081 9.13977 -3.07185
O -8.40063 -9.59002 -9.2278
O -0.387584 8.48475 -0.259937
O -8.29977 0.666178 -3.19019
O -3.50207 9.63565 -3.67409
O 7.41884 -5.01795 -8.05549
O 1.52358 9.05677 3.36491
O -0.151852 6.03844 7.54242
O -7.29888 -1.43132 8.23514
O 10.2704 3.61114 -6.17683
O 7.49518 7.49824 8.56616
O 2.62948 3.23692 5.71367
O -8.53891 3.41164 -4.66745
O -6.20173 -2.90967 -0.702166
O 1.34278 3.882 3.5666
O -6.97264 -3.54225 -5.83909
O -0.885101 8.56853 -10.2979
O -0.294735 4.55503 1.69258
O -2.73489 8.20437 -6.10536
O 5.81864 -6.67071 -6.88793
O 0.977709 -1.41416 -4.78035
O 9.55641 -5.99364 8.0205
O -1.17365 7.33784 -8.15261
O 5.13046 2.55577 -2.14995
O -3.4345 3.71806 -6.7928
O 7.70935 5.85049 6.6979
O 8.97868 -8.63557 7.24463
