588
Atoms. Timestep: 1790001
Si 0.884968 3.31205 -8.83695
O 1.30962 3.69459 -10.4589
H 2.20556 3.49059 -10.7
Si -2.1254 2.29871 -8.75959
O -2.31117 1.60885 -10.3134
H -2.13173 2.2013 -11.034
Si 5.00909 -2.14659 9.49098
O 3.83178 -2.44953 10.7367
H 3.19113 -1.75267 10.817
Si 7.96431 -3.31335 10.2282
O 8.19202 -3.97777 11.7694
H 8.61967 -4.82502 11.727
Si 1.88731 6.45974 10.2122
O 1.36969 6.15246 11.7213
H 1.32633 6.93479 12.2585
Si -10.2692 -8.89267 7.77793
O 10.1476 -8.60411 9.38683
H 10.0052 -9.41572 9.85961
Si 1.32366 9.60346 9.93883
O 0.479979 9.87833 11.454
H 0.939961 10.4917 12.015
Si -7.35519 -7.58007 8.14422
O -7.53158 -7.17168 9.8325
H -7.2676 -7.83281 10.4616
Si 4.33471 8.59089 -2.25016
Si -1.29133 -9.7956 1.40884
Si 8.3891 7.23918 6.71363
Si -8.28286 2.49214 -7.34169
Si -3.40547 5.03971 -7.8683
Si -9.38833 -4.80606 -3.55771
Si -3.21727 -4.72071 -9.53344
Si -6.32093 -7.6992 0.0662584
Si -2.19815 -7.56243 -8.6814
Si -0.134998 -3.57642 -5.94846
Si -4.94057 4.21931 4.91308
Si 10.0468 -4.63236 5.66
Si -0.811589 2.79242 1.55906
Si 1.31266 -10.4651 -0.188768
Si -6.5822 5.08069 -7.0405
Si -6.51168 -1.40741 -4.45122
Si 10.0218 -7.81951 -0.581407
Si 2.76675 -1.57846 2.57871
Si 9.45247 4.24747 -3.23834
Si 7.65823 -5.28868 7.74253
Si 5.32818 0.616841 8.14955
Si -7.47782 2.35222 5.10798
Si 4.48995 -8.38036 -4.13227
Si 3.98397 -7.32707 -7.09288
Si -10.3303 9.33327 6.63753
Si 7.3231 -3.63248 2.3075
Si -7.42217 9.19237 3.21449
Si 2.67762 2.39037 -0.775922
Si -8.62204 -9.74374 -0.654267
Si 2.02523 3.64652 2.86537
Si 5.73021 -10.2097 7.97374
Si -7.55219 7.12411 0.927423
Si 2.51449 9.05316 -4.7237
Si -0.467232 9.89215 7.34657
Si 5.6658 3.82597 5.62958
Si 6.32304 7.51956 -5.95934
Si -1.31385 -1.21821 -2.11711
Si -9.18125 2.27887 -4.255
Si -1.55448 8.03834 1.6268
Si 6.1409 -2.12477 -0.147903
Si -3.54561 -4.29582 6.59025
Si -6.63538 -4.20034 3.92481
Si 6.88525 3.33113 8.56629
Si -10.0727 7.00059 -5.49904
Si 7.3479 9.52141 -2.49395
Si -3.25799 -0.137685 -7.19893
Si -7.20695 -0.40362 6.44707
Si -4.63539 -1.78589 3.10095
Si -1.22936 -4.07919 -3.09054
Si -6.50325 2.64035 0.393113
Si 1.29349 -1.95515 -7.78184
Si -1.52331 -2.65185 -8.28092
Si 7.78878 2.04244 -1.75282
Si 4.61751 -4.21928 7.12092
Si 5.77535 -9.43554 4.97421
Si 7.49234 2.6392 -6.85007
Si -7.14989 -6.68638 -6.97846
Si 5.88126 -6.71408 -1.78849
Si 8.76442 -0.540767 -0.302998
Si -9.9668 8.51465 -0.133489
Si -0.259519 -9.3755 -7.52636
Si -6.43466 -0.17843 -7.45293
Si -6.02869 -2.96932 -0.235397
Si 3.13281 -2.1203 -0.450292
Si -9.77909 -3.12188 -6.23137
Si -3.45436 -3.80848 1.36263
Si 2.71537 -10.2146 -7.25853
Si -3.86645 6.76991 -0.118005
Si -6.53072 -4.71063 7.08945
Si -0.750541 -10.3224 -4.58696
Si 1.26004 5.90648 -6.9696
Si 9.88386 -5.37463 1.29191
Si 0.522142 -6.30653 -1.77274
Si -1.56661 0.267548 5.84299
Si 3.72688 7.90941 -7.15613
Si 3.16183 1.34821 -4.6876
Si 1.37978 5.87494 5.0239
Si 2.20503 -6.37761 7.25381
Si -0.303717 -1.51556 3.37007
Si 1.67151 -0.168552 -2.36625
Si 4.48306 5.07343 9.15785
Si 0.0242441 5.39796 7.90051
Si -6.23858 -4.33336 -8.68568
Si 1.08516 7.57967 0.1526
Si 9.64925 -2.74523 -2.47008
Si -8.51759 3.71119 7.8932
Si -6.91422 -7.02202 3.16438
Si -4.94838 -10.1807 -4.32907
Si 9.01553 8.79192 2.08178
Si -2.01596 3.07003 4.37704
Si -5.65378 5.13387 1.99205
Si -3.69036 3.06805 -3.23017
Si 2.94033 -9.18593 8.47582
Si 6.1881 10.107 2.17983
Si -2.15053 7.2489 6.852
Si -8.24732 -2.31496 -8.83775
Si -5.81328 -4.21661 -5.707
Si 1.54555 -8.98899 -2.94616
Si -9.54268 -0.831747 -4.28489
Si 9.94034 1.49922 -8.25756
Si 2.41235 4.40601 -4.43918
Si -5.41694 -9.65587 4.30778
Si 7.8355 -8.35117 6.97712
Si -2.74358 -8.63041 3.75034
Si 4.65963 -3.77391 3.91574
Si 9.8734 -1.35943 8.67411
Si 3.56425 9.01828 0.899139
Si 2.80599 0.84149 -7.88345
Si 6.4028 2.64049 2.84673
Si -0.820767 -5.69361 6.5026
Si -6.54216 8.0558 -7.49376
Si 0.897374 4.85599 -1.64527
Si 8.93652 -2.00902 4.15827
Si 9.71626 7.26817 -2.62545
Si -5.01766 -9.60053 7.51852
Si 5.25874 3.81204 -1.30703
Si -7.31135 5.908 -4.27833
Si 0.0612931 2.61738 6.71171
Si 5.61915 6.45169 3.71644
Si 4.94686 -3.78581 -5.33515
Si -9.02723 2.21629 2.4181
Si -2.84429 -10.2312 -9.04922
Si -0.140256 -4.78881 3.43898
Si -10.1259 -10.271 3.62895
Si -7.69506 7.72257 5.95711
Si 3.72418 7.97536 5.40283
Si 3.81278 1.31059 2.1026
Si -3.66435 -0.0729572 -4.01792
Si -7.73727 10.1542 -3.30213
Si -2.94108 -8.35056 -3.25257
Si 3.25867 -5.27183 -0.545066
Si -5.14409 8.26702 7.54007
Si -8.71296 -3.37364 1.57055
Si -5.01711 -0.184141 0.678775
Si -6.26954 7.74405 -1.90361
Si 8.52825 5.41586 -6.05218
Si 8.41497 -3.3869 -7.51125
Si -4.10372 -1.18662 6.06885
Si 9.52697 4.52436 7.79535
Si -2.0504 4.34824 -0.925013
Si 6.70034 -10.4311 -5.19588
Si 8.32676 -8.00375 -6.03123
Si -9.40836 0.913858 8.16197
Si -4.12418 8.19024 -5.4831
Si 7.30249 -9.19915 -0.331055
Si -2.53128 5.64897 -4.88142
Si -1.34999 -5.73928 0.741852
Si 3.26292 2.81595 7.15054
Si 9.63522 2.0126 5.95081
Si 6.58497 -5.77532 -7.23235
Si -3.13171 -8.12309 -0.209856
Si -3.69235 8.04381 -8.52721
Si 6.2978 1.10035 -4.39128
Si 5.52201 7.81917 7.79472
Si -10.0257 -7.05119 3.75402
Si -10.203 -0.686293 2.2246
Si 6.8357 -4.00371 -2.7459
Si 8.66403 6.24534 3.63072
Si 2.43431 -4.68868 -6.62215
Si -6.58756 -5.33628 -2.15808
Si -8.81746 -2.95536 7.05161
Si -1.72553 -0.0472152 0.86989
Si 8.22099 0.88805 -10.6982
Si -6.7772 3.38119 -2.6654
Si -0.225696 7.60083 -5.11337
Si 1.94373 10.4456 5.64714
Si 9.26061 3.19719 3.02052
Si 6.36522 -1.30218 -6.35051
Si -4.04219 -5.74155 3.80987
Si -6.38066 5.59944 7.40941
Si 9.92759 -7.44035 -3.715
Si 5.8594 0.830357 -8.58108
Si 4.9714 5.87755 -3.64811
Si -8.91519 9.55522 -6.25309
Si -2.19809 -8.59028 6.85923
Si -4.57751 -8.61106 -7.05721
Si -1.49116 6.2377 4.02947
Si 2.71989 -5.80681 2.61904
Si 9.86896 -1.28353 -9.36867
Si -9.68848 -8.40408 -6.15088
Si -3.94646 -5.52516 -3.87771
Si 4.53469 4.93465 1.51725
Si 7.69136 -0.333084 6.54365
Si 2.85144 -7.98937 4.51732
O 7.53562 -4.62485 -7.92466
O -5.4947 -1.41365 -0.244582
O -3.44723 -2.43179 2.1732
O -2.96259 4.2616 -4.15437
O 3.26547 1.77628 0.632096
O 5.26687 7.35026 -7.12387
O 0.538331 9.85031 6.07039
O -2.47823 -9.36143 0.423701
O -5.89124 -7.78235 -7.13827
O -9.54305 -4.18237 6.28574
O -4.73243 6.01995 1.1138
O 1.78528 -9.59202 -1.47391
O -9.85013 4.61608 8.11983
O 9.89135 -7.88794 -2.20776
O 2.50215 10.2457 0.842148
O -8.70596 10.2119 3.1665
O 3.06454 4.4315 1.93521
O 0.0878839 -0.465456 -2.55755
O 0.0748536 6.47588 4.3808
O -7.23297 -3.43019 -9.47509
O -5.39124 -5.7036 -3.11075
O -9.35105 -9.94602 -6.49159
O 8.95768 -2.47405 -8.75565
O 9.84223 10.0683 2.66509
O 1.22079 -9.84983 -7.80381
O -8.78384 2.45825 -5.79343
O 3.50752 -8.82195 -7.39412
O 8.74059 -8.63976 0.0244417
O 5.4254 -6.81971 -7.75452
O -3.3538 -7.1468 3.66752
O 1.89889 -9.33541 4.64976
O -0.847674 1.33496 0.880848
O -2.55032 -0.778737 -3.06944
O 9.20769 -1.84588 -1.18361
O 5.69618 -3.84976 -3.89081
O 7.00808 -8.53154 5.61807
O -7.86608 2.3667 1.28781
O -8.11835 -1.74163 6.15086
O -0.450458 -9.54125 -5.94084
O 6.37412 -3.11222 -1.46239
O -7.00068 -6.19537 7.32136
O -9.63449 -8.57046 -0.204224
O -7.54723 4.69442 -3.20112
O 4.82595 4.83939 -0.0394987
O -2.41357 -3.43908 -9.39151
O 2.94043 -5.61261 1.02718
O 3.358 -3.68542 -0.695096
O -6.96736 -5.75733 -8.30502
O 1.57958 4.83727 -3.09025
O -8.01068 -5.3004 -2.95321
O -7.03202 6.545 -7.68559
O -4.0583 -9.54819 3.57679
O -2.62463 -8.75285 -9.62197
O -1.77931 2.5233 2.83996
O 8.71049 -0.989051 7.64998
O 9.60678 8.72121 0.612658
O 0.260123 9.58448 8.74575
O 8.80318 -4.82325 6.70012
O 9.72217 2.33639 4.38448
O 6.11679 -4.88165 7.33128
O 6.61246 -0.324386 -5.07206
O 8.415 3.76409 8.77469
O -2.0086 -4.65328 6.93462
O -4.90906 -4.74551 7.40325
O -6.22431 10.1007 3.74842
O -4.77375 -8.02116 -0.00786024
O -9.60046 -1.77453 -9.54082
O -5.59669 -3.07339 3.46137
O 3.41427 -0.2001 2.43175
O -7.17877 1.29025 -7.45927
O -9.691 -1.57638 -5.68749
O 6.46741 3.8707 7.08995
O -6.88493 9.13768 -2.33169
O 5.46833 1.42584 2.40148
O 8.03881 1.43228 -12.1152
O -0.518183 1.10247 6.72718
O 8.66293 6.6594 5.24085
O 5.72675 9.2653 8.48934
O -6.30558 8.38647 6.40364
O -6.21214 -8.70297 8.08889
O -0.0926669 -2.07552 -8.62342
O -1.456 -10.2596 -8.18174
O -10.0692 -2.13529 7.78932
O -4.7745 7.53311 -1.23293
O 4.68711 1.22445 -4.28238
O 6.46448 -7.94891 -0.883452
O -7.30565 -1.12784 -8.41244
O -4.2345 9.40271 -4.49626
O 6.5188 -2.62578 9.93357
O -5.86326 -5.73919 3.62683
O 5.42373 -10.3319 6.25543
O 9.49815 3.51806 6.58214
O 4.65497 -5.96641 -1.01383
O 4.30851 -7.52123 -5.48458
O 7.61597 -6.68794 -6.4815
O 10.3483 -6.05317 4.85244
O -0.479146 -3.21122 3.48546
O 9.55499 5.68809 -2.47663
O -4.16436 -1.2404 4.47408
O -8.79717 -8.2036 7.6575
O -2.55612 -6.83233 0.576527
O -8.55808 -7.37759 -6.76484
O -9.78609 0.733531 -4.17102
O -0.893127 9.14063 -4.99756
O -5.01457 4.90716 -7.52906
O -6.24627 -2.96306 -4.80666
O 1.89506 8.12506 10.1182
O 2.33069 -10.2139 9.6161
O 4.21337 7.87155 6.86444
O -6.4522 6.93767 -3.32284
O 4.60065 -9.26388 8.5208
O 8.32015 -3.4505 -3.05126
O -7.92423 -4.01843 2.94128
O -3.32525 6.5126 -8.65811
O -4.78518 -3.70125 0.432467
O -0.840357 -5.63636 2.22396
O -5.78233 1.16831 0.3149
O 0.860355 4.69967 -8.01005
O -2.77619 -4.63081 -3.17478
O -2.89078 3.72251 -8.5446
O 2.57865 2.83612 -4.39929
O 3.2486 9.26829 -3.31242
O -9.1157 7.50084 0.696971
O 6.40607 9.11185 -5.79136
O 0.690769 -7.63042 -2.72524
O -3.2471 -0.292836 -5.59446
O -3.34632 0.056039 0.739328
O -2.64586 1.25853 -7.69127
O 4.09674 8.8408 -0.676956
O -10.3196 10.1612 5.2064
O -5.36736 5.06423 6.33063
O 10.5027 -5.97496 -3.86235
O -9.36912 -3.95005 -4.93843
O -3.603 1.50651 -3.64598
O 8.33667 1.15277 6.20867
O 6.38736 2.96395 4.48062
O 9.00251 5.96684 7.54405
O 3.91156 -5.0289 3.39267
O 8.58018 0.920253 -0.962295
O -7.06749 5.83037 1.67503
O 0.649096 -2.19132 -6.26843
O -5.61438 8.00668 -6.13622
O -5.24888 -9.73848 5.91255
O -6.58868 5.168 -5.49378
O -7.39436 -3.15521 0.615249
O -2.75963 7.78383 0.5597
O -1.89606 7.3285 2.95833
O 6.22509 -3.92346 3.43223
O -3.07194 9.1877 -9.49182
O 9.6471 -0.503478 0.995163
O -0.706414 3.16159 5.42562
O -0.345732 -6.189 -0.373505
O 6.83704 -5.59738 -2.35477
O 8.9344 1.89189 -7.10129
O -9.94726 8.34963 -6.38814
O 3.95872 2.94799 -1.5302
O -9.90884 -8.29419 -4.58867
O 1.67723 2.61699 6.77359
O -6.73619 -7.14437 1.56899
O 0.913234 5.68016 6.62008
O -7.99389 -1.19382 -3.88244
O 2.63177 -7.32489 3.07788
O 6.94868 2.18865 -5.3771
O -7.81946 8.1063 4.34678
O 9.03022 -0.561423 -10.5761
O -6.17971 -8.30254 3.92197
O -7.55851 -3.70149 7.79356
O -0.569233 2.59549 -8.6426
O 2.53441 -2.02322 1.03934
O -1.75018 4.72177 3.74821
O 6.1244 -0.42675 -7.62603
O -10.2605 1.16852 6.76624
O -1.30137 9.64992 1.70423
O -2.46376 -1.45435 -7.73001
O -8.95664 2.34174 8.67003
O 2.22418 -1.38059 -1.51667
O 8.45179 -4.6718 1.70655
O 2.87486 9.27524 5.1322
O 6.43011 2.14976 -7.8529
O -5.26212 3.39634 -3.16036
O -8.41042 -6.97243 3.70799
O 8.17694 -2.449 2.82196
O 6.52134 -9.83608 0.968745
O -1.59393 -7.07403 6.87096
O -4.24829 -9.40063 -3.09787
O 2.44878 -7.6721 8.19847
O 9.78658 -3.59304 -6.70217
O -7.53484 3.91945 -7.56088
O 1.60323 5.08118 -5.65971
O -0.849943 -0.768484 4.75629
O 0.889651 5.9113 9.0978
O -5.84279 6.89358 8.23956
O 0.886513 9.05389 -0.530227
O 9.81906 -8.12968 -6.74482
O -4.8383 -0.175164 -7.67236
O -2.26326 1.40567 4.95704
O 5.26779 -7.5676 -3.05253
O -7.60209 9.11545 -7.09931
O 7.18024 -9.54679 7.91202
O 4.57998 -3.00224 8.22764
O -5.64715 -0.827503 6.52912
O 5.14208 -2.29301 -5.98472
O 5.7124 -4.87855 -6.27139
O 8.42254 8.2951 -2.32153
O 3.5402 8.15048 -5.59246
O 5.77051 4.08622 9.45765
O -8.49444 9.55453 -4.61811
O -5.15569 -0.731044 -3.78831
O -8.23191 3.02532 6.43187
O 2.69696 6.78623 5.14429
O -0.646235 4.68161 -1.69242
O 10.0774 5.8294 -6.24965
O 6.92205 1.36523 -2.91602
O -8.51935 -9.93258 -2.22025
O 7.20604 -0.962918 -0.010166
O 3.34413 5.73632 10.1232
O 0.638622 3.29433 2.10634
O 1.71022 4.56203 4.16177
O -7.08129 8.35417 1.91256
O -1.48704 -0.753422 -0.557398
O -1.20278 -3.77543 -7.19086
O -5.31311 8.30258 -8.48375
O 1.1391 6.25188 -0.815698
O 0.103217 6.94179 -6.56719
O 3.63379 4.12024 8.12511
O 8.72352 3.1888 -2.34479
O 7.60559 -6.91852 7.68047
O -9.42871 0.644843 2.36277
O -2.62346 5.27441 -6.49811
O 2.55633 6.78675 -7.48013
O -7.2394 -8.98774 -0.163324
O 5.94298 6.74438 -4.64892
O 6.17204 -0.11394 7.06527
O -8.05075 0.144119 7.76643
O 8.67745 4.69155 -4.58777
O -10.125 -10.5065 7.69545
O 3.26523 -5.15349 7.35299
O 5.3715 -9.64032 -4.6515
O 7.47465 9.10479 2.11861
O -8.63954 6.52107 -4.92513
O -4.93321 9.80948 8.02542
O 7.8697 4.18028 -6.83996
O -4.38362 -4.78992 -5.28861
O -7.1269 7.17105 -0.629709
O 9.15696 -2.33585 9.77456
O 4.68311 -1.5676 -0.225674
O 6.85708 7.5189 6.94353
O -3.557 3.5295 4.88743
O 7.97112 -1.3293 5.26634
O -8.35321 2.61168 3.7671
O -0.248645 3.80991 7.83648
O -6.07817 3.05472 4.89219
O 2.01112 2.18198 -8.39127
O -1.10005 -0.913018 2.11981
O -0.171645 7.49162 1.07356
O 4.23845 0.867995 -8.64272
O -10.3854 -0.0196505 9.09133
O -6.46361 -10.1717 -4.05446
O -2.98259 5.62485 -0.850781
O -4.51578 -9.29828 -5.58148
O 2.27771 -3.35814 -7.65284
O 7.15077 6.42698 3.34219
O 4.59153 -3.70261 5.57425
O 4.80124 9.46275 1.83804
O -7.11559 4.43304 8.25418
O 2.39638 10.266 -5.75324
O -3.68509 -4.91623 2.55263
O -2.78462 -0.394014 6.60802
O 1.91819 1.15114 -1.4641
O -7.33726 0.798207 5.46488
O -4.73672 -4.62429 -9.34617
O 9.20379 1.7192 -9.65166
O -0.827745 -3.59765 -4.55525
O -1.48886 3.80217 0.454065
O 7.4439 -10.3958 -1.36057
O -7.75826 2.25192 -3.33493
O 6.57518 2.91666 -0.955856
O 0.647427 -5.85048 7.18689
O 10.3584 -6.36109 2.45862
O -9.26226 -1.90649 1.89274
O 9.85587 -6.3036 -0.0102704
O 4.33957 -8.53909 4.79814
O -2.95126 3.21087 -1.81261
O 3.43678 9.36565 -7.71534
O 1.63648 3.64972 -0.795169
O -0.607436 -5.40081 4.90651
O -2.50397 -6.08973 -9.39826
O 7.52799 -2.35747 -6.62969
O 2.03427 -5.81394 -1.42209
O 3.01987 2.28888 3.08037
O 0.622898 -10.0917 -3.68364
O 5.23613 6.43163 8.58124
O 0.928564 -4.75805 -6.06609
O 10.0504 -0.989069 3.56429
O 4.1934 3.25258 5.9231
O -3.34114 -7.62621 -7.52047
O -10.4002 3.01973 2.08102
O -5.65978 3.65593 1.31167
O 3.99783 1.53419 7.8005
O -6.29717 -3.81494 -1.60124
O -0.744682 -7.94209 -8.1565
O -10.1749 -3.83338 -2.37715
O 2.97514 -8.80044 -3.6775
O -2.21078 6.59904 5.42649
O 1.31249 -1.45372 3.25723
O 6.42692 1.75652 8.56767
O -3.81216 -2.69017 6.44312
O 7.60779 10.24 -3.90644
O 5.79085 9.10289 -2.51522
O 1.24522 8.12631 -4.60097
O -1.15669 -2.81025 -2.10489
O -2.24003 -8.82681 5.25989
O -6.58308 -0.701843 -5.93092
O 9.39226 8.51437 6.85916
O 3.03024 1.01878 -6.25582
O 6.13471 -10.0728 3.59624
O -9.87571 -4.31494 1.1005
O 9.39706 7.45374 2.86132
O -10.2074 3.39749 -3.69901
O -6.6672 -6.41646 -0.935423
O -1.40956 8.65765 7.03483
O 5.62474 3.87551 2.11705
O -10.252 -8.66234 3.77664
O 3.83178 -2.58229 3.24797
O 3.01985 -6.07283 -7.24623
O 10.0189 -0.0832702 -8.25323
O 4.27911 7.08851 -2.78385
O 10.1006 7.40172 -4.18522
O 10.4046 -1.57968 -3.34102
O -1.15315 -9.68605 7.42265
O 7.89583 2.57168 2.51656
O -6.76007 3.15459 -1.08502
O -3.58428 -8.86284 7.51754
O -1.31278 6.18984 7.71121
O 6.81942 0.795743 -9.85867
O 2.51311 7.80012 0.948671
O 7.94755 -4.5878 9.15212
O 4.93505 -0.60133 9.20556
O -5.7648 -3.70348 -7.24307
O -1.59897 -8.9967 2.7215
O -6.73026 -5.55759 -5.81076
O -3.57701 6.86262 -4.80732
O -2.21092 -4.39107 0.53073
O 6.39252 -3.14775 1.08248
O -8.99066 8.40479 6.52677
O -3.34946 -6.95847 -4.0199
O -9.64152 2.15556 -8.19453
O -3.34822 8.37366 -6.96207
O 9.08217 4.74397 3.43875
O 5.52492 5.30679 4.88096
O 2.00436 -0.559172 -8.06177
O -7.57523 6.19457 6.48004
O 2.42774 0.172681 -3.80877
O 4.851 6.24437 2.3724
O 2.42492 -7.01642 5.76495
O 7.70221 6.78672 -6.29995
O 9.58859 -3.41353 4.73603
O 7.49035 -9.36464 -6.09595
O -2.68675 -7.90737 -1.75517
O 5.53058 4.7847 -2.60142
O 4.97709 7.75106 4.4092
O -0.211359 -5.20406 -2.74475
O 3.90797 5.05755 -4.46853
O -4.14455 -9.86126 -8.06899
O 1.39724 -4.98194 3.03025
O -6.78294 -4.34628 5.50942
O 9.4408 -8.45729 6.89542
O 2.49623 -9.96181 7.08842
O -8.78739 -3.10504 -7.53177
O -3.71019 7.65593 7.11677
O -9.16808 9.89987 -0.183905
O -1.19116 6.49992 -4.50461
O -10.1653 7.91487 -1.67343
O -5.31086 5.118 3.58837
O 0.0422396 -9.73151 0.475326
O -5.44309 -0.759868 2.15886
O -3.81394 -5.03072 5.16459
O 3.3925 -4.08648 -5.47103
O -1.81084 -9.34736 -3.85645
O 8.64577 -7.77622 -4.4907
