591
Atoms. Timestep: 1790001
Si 5.36314 7.72 9.54296
O 4.26039 7.60949 10.8327
H 4.18679 8.36614 11.4024
Si -5.95311 7.22855 9.53889
O -6.18792 6.16753 10.8039
H -6.51596 6.54462 11.6118
Si 7.92003 5.86939 10.4114
O 7.93306 5.74698 12.1
H 7.17727 6.12078 12.5377
Si -6.34019 10.169 10.7173
O -6.28984 9.85879 12.3713
H -6.23773 8.94997 12.643
Si 3.58715 -8.95122 8.09335
O 2.837 -7.6436 8.79829
H 2.2326 -7.85922 9.4988
Si 0.441025 -8.20968 -9.82627
O 0.920697 -7.66876 -11.3378
H 0.72736 -8.22557 -12.0829
Si -2.05466 -10.237 -10.2049
O -2.02975 10.1717 -11.8084
H -2.89656 10.1204 -12.1938
Si -6.24785 0.0804555 -10.1647
O -5.99583 0.209043 -11.7228
H -5.90336 1.11897 -11.9796
Si 6.05391 -10.1407 9.73619
O 5.78715 -9.86472 11.3908
H 6.32317 -9.1828 11.7783
Si -9.00687 1.95105 -8.63296
O -8.46333 1.24013 -10.0721
H -9.15383 1.05859 -10.6988
Si -8.68725 -0.582977 4.88694
Si 0.686741 3.60088 -4.15479
Si -1.17696 -3.4935 -4.16436
Si -3.49928 -7.77388 -4.61987
Si -9.66341 2.96619 -3.03231
Si 2.56439 1.40758 7.02259
Si 6.69975 7.94412 -7.53469
Si -6.57909 -8.11174 -4.80537
Si 1.6816 -2.67968 -5.09034
Si 5.46888 3.81593 5.01085
Si 1.946 9.88339 0.594392
Si -6.68114 -0.835287 -0.0575286
Si -3.15317 2.85147 0.309284
Si 6.1811 -2.19828 1.47747
Si -7.75875 0.1686 -6.37296
Si 10.2174 -9.58643 -3.97879
Si -7.0812 7.04764 -7.74005
Si 2.73656 5.61567 1.93748
Si 9.66226 1.06357 -5.09552
Si -0.284983 8.05013 0.883384
Si 4.60672 -4.45551 -2.08987
Si -0.246917 6.31085 -6.54402
Si -6.07776 1.99868 0.870933
Si 5.76387 -5.99949 3.51573
Si 9.87307 3.81472 -0.3809
Si -5.44612 -9.44015 -0.898981
Si -4.83852 3.85035 4.02079
Si 3.75741 8.26979 -8.03946
Si 7.03504 0.259284 -7.84212
Si -4.9568 -10.0614 6.34047
Si -4.48612 -7.17526 5.57264
Si -9.13244 7.43482 -5.65003
Si 7.801 3.15326 8.79801
Si -7.09638 -2.2788 -8.28612
Si -7.37652 9.93649 -8.60319
Si -7.70962 4.95548 -4.49135
Si 2.26538 1.08764 3.83794
Si -3.74881 -9.49777 9.29368
Si -5.30437 -0.907937 8.08364
Si 6.2958 -9.03564 -4.78598
Si 10.4608 3.53393 4.17817
Si 0.996008 -7.56953 -4.49625
Si 4.81953 3.10877 -3.50819
Si 3.61495 -7.8047 5.07346
Si -6.36539 -7.00181 -7.91092
Si -9.33029 -6.65732 -7.84115
Si 5.21772 5.83153 -2.18716
Si 8.69897 -0.713572 -1.70859
Si 1.90923 2.79746 -9.52924
Si 7.01079 1.15305 -3.40086
Si -9.45541 -6.04943 3.49358
Si -6.23887 -6.59029 -0.748886
Si 7.29999 -3.39826 -5.02077
Si -8.34028 7.56664 5.06539
Si -1.36822 1.02187 -0.980291
Si 7.67369 6.00858 0.00277284
Si 0.321372 -3.18235 -0.0430692
Si -8.86086 -3.99873 -4.54541
Si -3.28092 -9.59979 1.30352
Si 8.96608 6.87138 -4.70911
Si 2.49499 4.39205 6.09813
Si -3.80572 8.3502 5.1767
Si -7.91826 10.2579 6.65922
Si -9.31963 -6.8546 -4.63221
Si 4.76963 3.7139 -6.59589
Si 2.44312 -2.03592 -2.13639
Si 3.38163 7.17854 7.06893
Si -9.27044 9.81916 -2.10191
Si -9.59239 -3.68961 -7.61358
Si -7.93637 10.384 -5.63279
Si -4.60997 5.53485 -3.8174
Si 4.67769 -4.97603 0.938751
Si -5.29295 8.13405 -5.25473
Si 9.97682 7.35556 6.30283
Si 6.92947 -10.3253 2.63509
Si 9.02187 -5.5795 0.107499
Si 3.64861 7.5344 -0.277566
Si -4.95217 -4.28889 -7.34123
Si 8.13909 4.77876 5.94055
Si -4.29636 -2.36653 0.949679
Si -5.14912 9.25677 2.62216
Si 9.14116 -3.06732 2.11866
Si -4.97944 -7.19785 2.09864
Si -3.11986 1.29969 7.60036
Si -1.54428 -5.16936 -1.64386
Si -7.82611 -3.62777 4.45235
Si -1.4581 -7.35732 5.63531
Si -1.49554 9.53137 8.32389
Si -8.63601 3.1467 6.64167
Si -0.954228 9.25411 -7.64982
Si -6.93662 5.7283 7.12282
Si -5.45594 -0.812133 -2.96334
Si 5.56912 -0.730793 -5.20715
Si -2.34818 -0.695635 -3.42377
Si -9.01685 -5.6962 0.377646
Si 1.51164 9.72462 7.67011
Si 8.99806 0.990315 0.704683
Si -6.95827 4.01744 -7.49139
Si 9.03695 -10.1398 9.00772
Si -4.81347 -9.50492 -8.97633
Si -6.40871 4.94553 1.5872
Si -1.38631 -8.03749 -2.39244
Si 10.1449 1.54881 8.13181
Si -2.4453 -5.18692 -6.35544
Si 5.81112 0.820556 0.503912
Si 3.1435 -9.5929 -5.34827
Si -8.1726 0.322696 7.78248
Si 0.745072 1.79139 -6.78797
Si -3.99453 4.38582 6.96003
Si -2.74038 -3.07763 5.27482
Si -0.523983 -10.4367 5.56437
Si 9.27106 -1.61825 -6.80114
Si 5.43693 -2.98116 4.39343
Si -0.292536 -0.0134759 7.11906
Si -9.17015 10.211 9.64733
Si -9.29263 -2.5938 0.329481
Si -2.03086 4.22948 -5.11414
Si 4.35959 1.18073 -8.59969
Si 5.44418 -5.96228 -4.74321
Si 2.69339 -1.87514 4.14866
Si -8.52171 -7.67034 6.09487
Si -0.702472 0.704808 4.04081
Si 9.26776 9.83553 4.52611
Si -4.56301 -4.16134 -1.70915
Si -9.93823 -9.63679 -7.74106
Si 8.70861 -6.15834 4.80371
Si -7.01387 -9.42263 1.93619
Si 2.00452 -4.35584 2.35517
Si 1.18917 -5.74419 5.09445
Si -4.08219 -0.319469 5.31197
Si -5.17803 7.36494 0.0214514
Si 2.64165 -5.49183 -5.67608
Si -6.28957 1.2106 3.93722
Si 6.16532 7.53348 -4.59606
Si 1.19414 2.76036 -1.31044
Si -9.74427 -1.68147 -2.6218
Si -5.09 1.54607 -7.64173
Si 3.70089 -10.2959 3.10674
Si -1.04838 7.98561 3.86567
Si -4.21788 -3.9335 8.0127
Si -3.10792 5.63954 -1.04654
Si 8.15965 -0.215984 6.26381
Si 7.57928 -3.527 -1.97027
Si 6.10214 7.80824 1.86462
Si 3.60664 0.989817 -1.66721
Si -0.809363 -10.3287 -0.262936
Si 1.3256 6.4777 -3.88513
Si 9.17186 2.57883 -7.7645
Si -2.26584 1.13895 -6.18876
Si -4.85567 -4.36137 3.33156
Si 9.05697 8.05617 -1.99153
Si 2.51703 5.39397 -8.06259
Si 10.0436 7.94622 9.29244
Si 9.68974 -8.64439 6.24576
Si -6.24973 9.04265 -2.41333
Si 7.65628 5.19354 -7.03929
Si -1.45021 -1.01561 1.50875
Si -2.00767 3.1446 3.06312
Si 0.300845 -6.51884 -7.23645
Si 5.67831 1.49218 7.31167
Si 0.314738 -2.77614 5.95814
Si -9.4968 5.26898 1.71618
Si 7.78893 -10.1115 -2.14733
Si 3.36311 8.52642 -4.85456
Si 8.39433 -3.08166 5.27051
Si -7.86942 0.802701 -3.24498
Si 9.53948 0.511768 3.75872
Si -5.81271 -3.29104 -4.44419
Si 0.0276865 5.68411 -1.14559
Si 2.83652 -0.390598 -6.48624
Si 0.339648 5.14743 3.75955
Si -3.38465 10.5026 -6.26945
Si -3.0262 -6.70062 8.27023
Si -3.26347 7.06434 7.98571
Si -6.58819 -5.34417 6.55668
Si 8.47984 10.3937 -6.45598
Si -9.66359 8.29446 2.4405
Si -9.66522 -10.0851 0.749083
Si 4.34579 2.95739 2.31522
Si 8.3536 -8.63718 0.558067
Si 4.00457 7.68945 4.02905
Si 1.86435 -10.3705 -8.13536
O -6.25318 8.70359 10.0566
O -4.12056 -10.0925 -7.64669
O 1.03933 2.65881 -2.89255
O -3.39836 -4.61425 -7.53263
O -3.16619 -6.45708 -5.58783
O 6.27315 -0.0644628 -6.42042
O 5.4272 3.43982 3.46002
O -8.85368 -10.4508 -8.71564
O -6.09551 -10.3914 -9.38473
O -8.95658 -4.54642 3.77102
O 4.08284 -2.26678 4.92651
O 9.64943 -10.2425 -7.53793
O 5.81947 -0.829844 0.738029
O -8.78489 -4.15034 0.526161
O 8.21886 -0.890719 -7.81998
O 7.64164 9.16326 -7.01456
O -6.11748 7.49279 -6.53214
O -5.57192 -5.97498 5.45366
O -4.06173 5.56765 -2.29224
O 0.493945 9.98458 -7.62807
O -8.33457 8.95831 5.83124
O -5.91767 -1.71362 -4.17016
O 1.32331 4.60047 4.9447
O 3.27276 -9.03476 4.03294
O -5.65923 8.02949 -1.31547
O 10.4813 -9.92436 9.7555
O 3.078 -0.563978 -1.80296
O 9.6989 2.02029 -6.37524
O 6.04676 -2.26707 -5.01777
O -4.53091 6.8996 -4.59433
O -5.00731 -8.67685 5.41593
O -8.04656 4.52982 7.07695
O -6.92202 -9.68029 -4.82488
O -5.48283 -1.28834 0.920175
O 8.39928 -7.03437 0.399435
O 4.61899 7.30334 8.1817
O 1.17852 -2.43886 -1.12978
O -8.79647 0.870495 -7.40378
O -10.3694 -8.0541 -4.24679
O 6.71981 -9.57624 -3.31419
O 0.91118 10.296 6.31889
O -1.62047 0.14342 0.365264
O -10.4802 1.8613 -3.94667
O -2.03034 2.84873 1.52984
O 6.04367 7.26112 -6.13449
O 4.15698 -6.08725 -5.73695
O 9.85781 -9.33739 0.735248
O 1.92649 -1.65281 -6.29049
O -2.6776 -7.78114 -3.28198
O -5.41631 -6.73902 0.605367
O -7.79717 -10.2588 10.405
O 9.32623 0.64646 7.0624
O -8.21634 -9.27201 6.06578
O -0.63383 9.42434 4.44339
O 4.72452 2.27344 -7.36639
O 6.86179 9.26134 1.76524
O -5.19724 -3.82643 -5.77227
O 3.15213 2.16558 3.06384
O -5.07282 -7.72379 -4.38282
O 10.4248 2.25084 -8.7255
O 9.1761 0.263985 2.19026
O 3.74822 4.34821 1.80346
O 8.27467 -4.62466 -0.971731
O 5.05385 1.82936 1.41294
O -6.36238 -3.89938 3.81236
O -8.20596 -2.08382 4.4299
O -5.28052 8.42445 1.24024
O -9.79556 6.94524 5.38613
O -3.18827 -7.94527 9.361
O 9.19173 -9.46741 7.60095
O 9.21372 6.74211 9.93004
O 1.01217 8.77947 1.38937
O 7.00135 6.52587 1.37678
O 5.71846 -2.11312 3.05142
O 1.15455 -4.05424 1.02979
O -2.01501 7.97847 8.2989
O -3.45929 4.65426 -4.56052
O -1.45319 0.0723271 -2.26592
O 8.1525 1.14561 -4.53201
O -5.68885 -3.07057 -8.09575
O -4.21104 9.36591 -5.54802
O 2.47182 -6.69266 5.29589
O -5.89278 6.06213 0.572343
O -10.4709 -5.82374 -0.296949
O -2.27747 0.108768 -4.81701
O -6.84016 -1.19011 -9.46225
O 9.43168 -10.4994 -5.09151
O 10.4176 3.48696 -1.86419
O -0.319499 -1.99435 0.870203
O -2.22666 -4.04217 -5.30037
O -9.17158 -6.30535 1.87229
O 10.399 -2.42687 -7.64043
O 7.33644 -6.06224 3.96797
O 1.80308 -1.95735 -3.65891
O -9.95119 -8.07918 -8.245
O 8.38492 -2.73423 -6.01059
O 1.7949 -6.11362 -4.47506
O 8.80491 6.20621 6.21778
O 6.23935 4.33243 -6.84591
O -0.958465 9.02394 -0.208572
O 1.66909 -5.77924 -6.95698
O -9.45915 -10.3269 -3.49434
O -8.64608 -7.02973 4.53467
O 10.4882 8.84201 -1.97757
O -2.89064 -1.76496 1.41894
O -6.31805 10.2477 6.66817
O -9.22063 -10.2582 -0.783893
O -9.7661 -2.30883 -1.17171
O -1.91548 9.97874 -6.59555
O -5.01411 0.243203 4.17155
O -0.777846 -4.14092 -0.664466
O -0.919603 4.28631 3.40823
O 4.58662 4.36372 -2.55208
O 5.40339 -3.56947 0.983679
O 2.19636 4.40101 -9.28633
O 9.80563 -1.0826 -2.82522
O -1.10798 7.94228 2.23461
O -6.3829 1.51637 2.36141
O 9.46448 -0.165372 -0.340048
O 3.38563 2.01526 -9.50444
O 8.68117 -7.51051 5.66928
O -9.38513 -2.72862 -3.75998
O -5.68817 -5.63614 -7.66526
O 2.26836 -8.55994 -4.48254
O -1.74924 -6.94336 7.2598
O -6.76129 5.54838 -8.09577
O 6.47081 2.32673 8.46348
O 8.01759 9.31471 -2.09487
O 9.39262 8.76311 5.78042
O 3.38438 8.25412 -6.41033
O 5.77958 9.26779 9.52873
O -9.9879 2.70211 7.33516
O 10.3937 7.48613 7.85405
O -9.16574 -9.68228 -6.25651
O 6.02024 -3.68617 -2.03451
O 3.26373 6.77637 -8.45414
O -4.62314 -2.39166 8.48799
O -1.63888 0.641313 7.84408
O -5.73228 -5.15578 -1.3888
O -7.55419 -4.25271 5.93339
O 7.7982 0.584792 -2.15073
O 2.50744 7.42166 -4.11308
O -3.57396 2.92024 7.58635
O -7.85357 -6.76238 -8.47269
O -0.732915 7.6948 -7.26522
O -1.47204 10.1696 6.84014
O -3.30853 -9.12763 -5.4339
O -7.79138 1.83009 7.08492
O 2.81167 8.89511 -0.366637
O -5.62577 4.79746 3.01191
O -6.49064 3.53603 0.765024
O 0.00539355 6.65029 0.11673
O -0.132937 -7.92257 -3.46394
O -2.28791 2.71975 -5.72097
O -4.03722 9.90222 5.57309
O 9.20196 6.88512 -3.09922
O -8.39574 7.91284 3.46283
O -9.70317 8.72447 9.97273
O 10.0326 -6.22139 3.95735
O -6.20024 -1.27001 -1.56274
O 6.38869 5.8214 -1.03062
O 4.68288 3.40003 -5.03779
O -1.75652 -9.87842 0.940702
O 7.6963 -2.45164 1.63553
O 2.83141 6.46595 0.600412
O -3.64466 1.07145 -7.13643
O -7.33649 4.37513 -5.94918
O 2.83549 -10.4141 1.71183
O 3.8966 1.93407 -2.95745
O -6.42435 10.2926 2.67435
O -3.9274 10.2227 2.26463
O 7.42584 6.5515 -7.97083
O 0.734097 6.42159 -2.42087
O -2.55338 2.12579 -1.03487
O -0.126147 6.67479 4.14251
O 1.44552 -1.9929 5.09245
O 3.9021 -8.53372 6.55888
O -6.72704 0.786013 -0.0923622
O 0.166611 -3.22341 -4.94882
O -8.59294 -9.31536 1.73646
O 5.83645 6.43826 -3.52886
O -6.83934 -0.458502 8.42967
O -6.14992 5.10633 -3.84073
O 2.8498 9.49691 -8.56275
O 3.46951 -3.30758 -2.06409
O -3.65577 -3.92612 4.28589
O 7.8548 1.65346 -7.93786
O -1.75828 1.86688 3.97829
O -10.4562 -2.48287 1.40195
O -4.298 -9.69593 7.78775
O 2.70476 10.0331 -4.75161
O -0.742248 1.03869 -6.77903
O 7.96745 -2.06711 -1.4692
O 4.89449 -7.04042 4.34969
O 5.26163 -4.51845 3.97587
O -4.52539 2.09077 0.61995
O -8.7055 10.2315 8.1007
O -9.52841 9.36674 1.31977
O -5.84462 -7.95735 -1.44936
O -6.46208 -9.57187 0.394141
O 3.26945 -5.08058 1.71103
O 8.93116 -2.98543 3.74536
O -8.55731 8.94287 -5.40552
O 4.77935 -5.39626 -3.34224
O 9.16192 3.99072 5.01476
O -7.55723 -1.32657 -7.02048
O -3.73586 -8.21731 1.94052
O 1.31172 5.22601 2.46007
O 7.58387 -9.67642 9.46593
O -7.81834 -6.43536 -0.406567
O 3.52664 4.62201 -7.07717
O 4.97209 8.59238 -4.31591
O -10.0136 6.86514 1.82536
O -8.06652 0.601057 -4.85612
O 7.83961 10.2152 3.88067
O 9.06385 9.26035 9.15331
O -1.75891 -2.15647 -3.56408
O 9.83128 -0.468681 -5.78281
O 10.2687 7.42977 -5.49638
O -4.19174 -6.97924 7.15821
O -1.58952 5.51411 -1.40477
O -1.24849 -6.75418 -1.39076
O -2.93737 -7.17804 5.03469
O 5.58236 -5.92812 1.92288
O -9.17249 -3.87264 -6.11545
O -1.6042 9.63218 -9.11637
O -5.48858 0.966518 -9.14357
O 2.60864 5.71752 6.96953
O -8.92914 4.06921 -3.87325
O 1.07267 5.76113 -7.31937
O -3.88698 -0.759636 -2.89192
O 8.35842 5.72047 -5.61689
O -3.61078 3.41499 3.20716
O -7.96173 5.26622 1.83946
O 9.0485 2.15609 9.03393
O 3.95131 4.26445 5.41473
O -3.52204 -9.6542 -10.0012
O -0.931375 -9.02084 -10.0806
O -7.26433 -4.0238 -4.37325
O -8.08814 3.1759 -8.24945
O 2.69769 -0.444705 3.5075
O 0.0111747 1.79207 -0.760476
O -5.86808 2.70003 4.48622
O -10.2441 4.46303 2.89842
O -8.34645 6.42962 -4.59311
O 6.1509 -7.40359 -4.75468
O 1.18083 0.570424 7.52294
O -7.29567 6.58597 5.72801
O 8.77543 4.12972 -7.68983
O 0.819713 4.27997 -0.896688
O -9.91304 4.58083 0.346041
O 8.24765 0.238064 4.6939
O 1.40332 -5.1672 3.60894
O 4.75085 -9.4685 -5.17276
O -3.33948 -5.15512 8.71402
O 6.64176 4.78399 5.4067
O 4.91176 7.81284 0.721004
O 0.130403 9.60423 8.55998
O -2.51606 7.92193 4.41997
O -6.29263 0.554137 -3.12684
O -6.32819 -8.03648 2.51676
O 2.30581 3.06398 6.96654
O 5.82755 0.482314 -8.95811
O 7.57178 -9.13269 1.83372
O 1.8145 0.779367 -6.26582
O 2.3122 8.27673 7.40667
O -4.7281 -5.91377 2.93635
O -10.0583 -7.70897 6.60418
O -9.50985 0.701863 8.59138
O -7.26789 8.32705 -8.64196
O -8.61913 6.99432 -7.05794
O 9.62961 2.41776 0.387196
O -5.5345 4.968 7.14933
O 3.22066 6.61191 3.17548
O -3.07105 -1.54205 5.07226
O 7.80381 4.40655 9.81557
O 8.69667 -1.80355 6.22386
O 5.48544 7.70702 3.32603
O 1.01952 -4.2873 6.01969
O 4.99221 0.932119 -0.891451
O 6.79458 0.325303 6.88185
O 8.52833 4.69811 -0.133002
O 0.795954 -10.2301 -0.0631278
O -3.04428 5.44589 7.72078
O 3.54789 9.23218 3.78286
O -4.27779 -3.04647 -0.504267
O -9.25171 -6.69026 -6.20792
O 1.23306 2.32643 -8.15978
O 6.68126 6.81348 9.9485
O 9.16575 -9.52387 -2.78878
O -4.88558 8.3566 3.96365
O 7.96952 -3.61982 -3.55522
O 0.710192 2.9611 -5.61249
O -6.05485 8.60258 -3.94009
O -6.33982 0.884696 -6.71813
O 5.99599 0.0687458 -3.86158
O -7.11129 10.1895 -7.03431
O -4.04152 4.37726 5.38929
O 2.64058 1.15436 5.42332
O 5.31496 8.37385 -8.22046
O 2.58469 -10.1859 8.18078
O -5.60289 10.4257 -1.97377
O 10.2054 9.11496 3.39371
O -0.87883 3.97168 -4.01717
O -1.31254 -9.46864 -1.57122
O -9.24974 3.42196 5.12779
O -7.64892 0.532601 4.40017
O -8.47686 2.0625 -2.46942
O 4.95965 -9.39313 8.82169
O 2.64435 -9.55881 -6.89722
O 2.67639 -3.90615 -5.33791
O -0.906263 -8.90213 5.40445
O -10.0422 -5.25246 -8.09262
O 9.86964 -9.74159 5.07297
O 4.0923 6.81417 -1.60432
O 4.00564 -0.60845 -5.41269
O 9.0483 -4.60796 1.44318
O -0.165811 -1.68181 7.05927
O -5.09928 -0.934581 6.45772
O -0.991318 -5.63894 -6.95389
O -2.54113 10.4089 9.29916
O 6.80262 -2.94895 5.25222
O 4.11156 1.16839 7.56286
O -5.60108 -4.60167 7.59469
O -0.216431 -6.44279 5.21095
O -8.60507 -0.526171 6.47379
O -6.54986 -7.70395 -6.42711
O 0.267067 6.79089 -5.03547
O -3.81821 7.50475 6.52103
O 5.62919 2.51219 6.03483
O -7.82401 9.2093 -2.1492
O -3.5724 6.97183 -0.242385
O 6.36628 2.60501 -3.29786
O 1.66212 4.87091 -4.06567
O 8.08957 3.95208 7.39038
O -8.7233 -0.49056 -2.63913
O -10.2309 -0.397429 4.40587
O 7.7358 -9.43805 -0.687754
O -8.2289 -3.27834 -8.38061
O -4.63737 -3.55946 1.93094
O -3.34977 4.39699 -0.000399197
O -1.3959 5.22759 -6.22517
O -3.28265 -3.55045 6.72147
O -4.87013 -3.59914 -3.16842
O -3.12539 -4.9629 -1.62674
O 1.06261 2.41016 -10.8262
O -7.98324 -1.62914 0.432883
O -1.13206 -3.16781 5.28971
O 6.55214 -4.87112 -5.25846
O -7.8097 -7.30432 -4.16362
O -7.4491 -6.69085 6.80461
O 8.61984 7.21733 -0.684702
O -4.28655 0.349066 8.39294
O 3.52245 0.0165043 -7.84126
O 4.50735 -5.29234 -0.6883
O 10.0646 2.02568 3.70758
O -4.42915 7.21196 9.00169
O -1.07479 -0.443649 2.94685
O -9.57995 -5.36237 -4.05832
O 2.53832 -2.99144 3.01323
O -0.502771 0.307118 5.55334
O 0.295401 -7.17395 -8.64785
O 2.57822 1.97755 -0.931818
O -5.42773 -8.01778 -8.69837
O 0.320763 -7.51417 -5.94708
O 5.32118 -10.1507 2.90691
O 0.709557 1.22375 3.46883
O -1.0822 -4.70354 -3.0857
O 1.48819 -9.33094 -9.28801
O 8.71564 -4.67871 5.63441
O 3.90374 7.39268 5.56106
O 7.68044 7.91133 -4.57335
O 7.38083 1.22521 0.59137
O 7.3546 -9.57135 -5.93052
O -6.85582 6.7588 8.28198
O -4.0373 -9.56888 -0.138424
O -5.02507 -9.99061 10.2296
O -5.59777 3.10326 -7.59075
O -3.46522 0.938331 6.08311
