585
Atoms. Timestep: 1790001
Si -6.08192 1.38234 9.57219
O -7.12891 0.56722 10.66
H -6.73544 0.510781 11.5229
Si 2.34103 -7.60039 8.46174
O 2.43372 -7.1765 10.1218
H 2.21577 -6.27466 10.326
Si -2.73574 0.0119254 -9.97572
O -2.05678 0.0658303 -11.5328
H -2.57268 -0.237635 -12.2705
Si -6.15478 4.58425 9.81883
O -6.94999 5.1099 11.1883
H -6.96798 4.50901 11.9239
Si -4.85488 2.41293 -10.0363
O -4.53519 3.10409 -11.5781
H -4.24776 2.53197 -12.2799
Si 3.54801 -10.4489 8.86981
O 4.29514 -10.1875 10.3952
H 3.99183 -9.43836 10.8945
Si 1.97456 9.35047 -7.58678
Si 4.17893 8.4395 -8.34678
Si -3.16799 -6.94471 6.68898
Si -4.90873 -5.15203 7.32117
Si -7.86761 0.775347 7.29604
Si -6.18622 -9.28362 -5.19756
Si -6.57279 9.23608 -3.51941
Si -10.2513 -0.10904 -5.57601
Si -10.2963 -2.966 -9.77225
Si 6.8122 -10.2133 -1.50921
Si 6.069 -7.02541 -1.31143
Si 3.77185 7.98981 4.58738
Si 1.00247 -5.74947 -3.35743
Si -0.414098 -3.41635 6.64534
Si 8.59308 -7.1178 6.19785
Si 7.58133 -3.20817 4.42063
Si 4.8357 7.45855 1.95227
Si 9.27355 10.0144 4.12587
Si -8.78149 -6.1853 4.26129
Si 2.46994 -4.6961 -6.14547
Si -2.51514 1.59073 6.17402
Si 3.89945 -1.78178 -6.22165
Si 8.79122 1.04974 2.64677
Si -0.501975 1.15867 8.52044
Si 0.474685 4.0338 8.53728
Si -0.140426 7.64225 -5.90621
Si 5.6644 9.19569 6.83901
Si -8.07707 -4.93626 7.01262
Si -4.10591 -7.82871 -8.20604
Si 3.9357 3.2691 -5.92042
Si 7.88681 -0.206875 5.23617
Si 0.709514 -6.80128 3.89305
Si 6.851 -4.75222 -3.33586
Si 8.03824 7.04845 7.55423
Si -5.76208 -8.89387 0.359193
Si 7.78503 5.24696 4.95589
Si -6.25241 -4.74419 -0.321745
Si 8.56352 -1.07297 0.49675
Si 7.07316 3.35064 1.22187
Si -5.10206 -2.09298 4.63625
Si -3.07616 0.0438405 3.46424
Si -1.91221 -1.50967 -4.99381
Si -3.01976 8.51724 -5.7558
Si -8.40974 -7.70133 -4.10879
Si 7.55721 7.84622 -6.07809
Si 4.39224 9.24694 -0.577279
Si -6.30249 -1.75847 -7.52429
Si 0.780203 -9.82266 2.97866
Si -9.31009 2.50115 -4.22125
Si -6.41946 7.67523 3.83553
Si 4.27454 -2.16163 7.81615
Si 7.78659 -6.898 1.11531
Si -0.130426 -5.88599 -7.21872
Si -7.72635 7.02276 -5.36477
Si 4.14223 4.35274 2.21485
Si -5.66412 9.78127 5.96103
Si 1.48159 -0.969135 7.5559
Si 1.67317 0.960658 -2.78859
Si -3.27 1.09188 -3.77183
Si 9.69409 -4.23367 -2.33167
Si -7.63555 7.73408 -1.37787
Si -7.70362 -5.14069 -5.61653
Si -2.56874 -4.64145 -5.7432
Si -6.22033 8.77802 8.55419
Si -9.56939 -0.755825 -0.379687
Si -2.33702 3.02451 -5.92706
Si -3.40546 0.346307 8.79016
Si -8.24823 -1.99713 4.10522
Si -1.18237 1.07909 -1.5364
Si -1.02166 6.6292 8.87756
Si -7.30799 3.15127 -1.83746
Si 2.81451 -9.31805 -4.18338
Si 6.70121 -6.08007 -8.97686
Si 6.97487 -9.44309 5.18115
Si -6.7673 9.24282 1.16568
Si 8.74051 3.82042 -4.17606
Si -4.07012 6.67501 9.28448
Si 3.18339 -9.18861 0.907268
Si 1.57215 8.28345 8.26343
Si -1.51916 -10.2255 -1.71203
Si -2.68618 -5.24611 -8.74814
Si -5.30541 0.775653 -1.41081
Si -0.00563024 -6.46348 6.94491
Si -1.67097 -7.29 -2.71294
Si 4.83343 -2.84254 2.92282
Si -1.92394 8.79073 4.51886
Si -0.326527 -2.88058 -2.75415
Si -3.3884 -9.41576 4.72546
Si 10.0775 3.4834 5.77951
Si -8.97171 6.71577 4.96494
Si 6.6812 9.90238 -8.312
Si 0.606178 9.57237 -3.49464
Si -7.23663 3.2884 -6.39696
Si -9.71952 9.37144 2.07711
Si 10.3684 8.74103 6.72172
Si 2.84256 5.49769 7.36888
Si 8.37126 0.6142 -7.25116
Si 2.06063 0.907046 5.0542
Si 9.19334 -5.67705 3.53553
Si 7.52996 -3.36016 -10.4347
Si -7.97435 6.19417 7.86676
Si -6.02174 4.41571 3.72254
Si -5.28925 -2.13862 -1.88658
Si 1.3228 3.32192 0.892983
Si 4.63105 4.96239 5.16556
Si 1.59238 -8.49902 -6.88358
Si 6.1374 -0.34641 -1.35693
Si -9.04581 0.569385 2.28363
Si -8.20679 -10.4853 7.51735
Si -10.4207 -4.77535 -7.17242
Si -9.95426 -7.67727 -8.22673
Si 10.2674 7.30446 -1.67686
Si -3.82399 -6.76991 -0.461068
Si 1.69451 7.94551 -1.10207
Si -9.30565 -7.62431 6.70668
Si -0.959415 0.468778 -7.30859
Si 9.26756 -8.54432 -5.95444
Si -6.87285 4.75273 0.842719
Si -8.20458 2.37999 4.57112
Si 3.72775 3.28754 -2.7943
Si -4.5884 10.3144 -7.5638
Si 5.42505 -7.9739 2.88622
Si -7.05117 -6.51437 -8.29476
Si -9.36259 6.16227 2.06827
Si -4.36484 -2.77813 -9.56416
Si 8.98518 5.76765 0.648532
Si -0.890687 -4.24151 3.73367
Si 7.11287 -4.71226 7.25839
Si 5.35477 5.82943 -7.06402
Si -7.98675 -7.24206 -1.10791
Si -2.302 -1.91058 -0.844154
Si 6.7862 2.63524 -1.91347
Si -6.5514 -2.49128 -4.52954
Si 1.06733 3.94383 5.60283
Si 6.80784 3.22734 -6.61505
Si -2.87577 6.744 6.45878
Si -3.49999 -2.44288 7.38427
Si 9.97644 -8.0586 -0.744891
Si 1.92395 0.832925 -6.03124
Si 4.26405 -6.9072 -7.39283
Si -3.82542 4.98912 0.366028
Si 4.71271 -0.564264 5.12702
Si 6.90968 -2.45606 9.54541
Si 10.4134 2.04769 8.25628
Si 6.52627 -1.89986 -7.7168
Si -7.33083 1.07838 -8.67698
Si 9.32188 9.97527 -0.299834
Si -6.04386 5.50392 -3.26908
Si -4.02419 -4.96341 4.23479
Si 1.44856 4.88151 -1.82068
Si 4.12713 -5.32433 7.09337
Si -10.102 -0.0880632 -8.5732
Si 1.48813 0.312849 1.94195
Si 3.61411 -5.52161 3.86677
Si -9.39945 -1.82222 -3.22017
Si 9.14104 -0.682121 8.17738
Si 9.75891 -7.03477 -3.50701
Si -0.60073 4.61632 2.99496
Si 8.40541 -8.64999 -8.83744
Si 3.0504 -7.39002 -1.5838
Si -3.06941 5.8451 -2.49413
Si 3.96771 -1.05509 0.721037
Si 10.1889 5.13137 8.33771
Si 10.4885 -3.52384 0.468978
Si 10.1278 6.67442 -4.73897
Si 4.8005 -2.44946 -3.40115
Si -3.80619 -7.26437 -5.10019
Si -4.58581 4.44322 -7.57148
Si 1.00125 9.09371 5.27804
Si 7.80968 10.4577 -4.35959
Si -5.37853 7.37233 -7.27201
Si -0.304493 9.31412 0.7653
Si -1.99443 7.06822 1.92012
Si -0.954273 -1.649 2.00585
Si -3.60838 8.85938 -2.72104
Si 7.58189 -4.54153 -6.37331
Si -3.15958 1.85497 0.73273
Si -9.19492 -2.00145 7.05151
Si -7.32735 -3.65701 -9.60512
Si 5.44053 -9.24386 -5.86432
Si 7.87211 7.43835 2.7882
Si -4.01939 -7.45782 2.3847
Si -3.08854 4.19204 4.61712
Si 2.40792 -1.94312 -1.81157
Si -0.543773 4.99291 -4.35575
Si -8.10697 -4.50574 2.06472
O -4.26551 -6.53147 7.72242
O 2.72335 8.77291 -8.96283
O -7.67295 -8.65657 -5.07486
O -6.0243 6.06342 3.78628
O 0.614217 0.0390543 8.54468
O -4.43173 5.56177 -3.25363
O -10.296 -3.04858 -2.76122
O -1.7989 5.51899 -3.39296
O -2.07973 1.5742 -2.78914
O 7.90341 3.37372 -2.8823
O 8.06782 -1.32815 9.11745
O 8.79915 5.82759 8.44657
O 5.18101 -7.76522 -6.30768
O 5.42378 9.224 -8.96869
O -10.1796 -1.18556 -4.45059
O -9.04515 -4.75645 -6.34576
O -7.00831 5.12655 8.50939
O -10.1155 7.62262 5.61591
O -3.05884 1.03512 2.16479
O -7.12612 10.3119 6.21966
O -3.02563 8.90103 -4.23784
O -1.08733 -5.44309 -8.48117
O -0.794438 -1.81946 -3.88942
O 4.09645 -9.63071 -5.09292
O -9.2696 1.05827 -4.92846
O 10.3524 3.55672 8.87516
O -8.39646 -7.44621 -8.4864
O -4.84088 -2.3106 -8.05929
O -10.2968 -5.90533 3.75778
O 7.78125 10.5027 -2.77366
O -5.84567 -3.12739 -10.1452
O 0.35271 -8.29978 3.3822
O 5.91102 -10.1844 -7.14455
O -6.73516 -3.9953 -5.01646
O -8.64604 2.79715 -2.80289
O -8.13873 -6.19535 -4.46576
O 10.0038 -5.52035 -3.22803
O 0.128395 2.5183 9.08503
O 4.3923 -8.60721 1.85262
O -4.1111 -3.87245 7.77206
O 8.80489 4.04115 5.0262
O 7.00754 2.73025 -0.295763
O -8.33037 1.73044 3.12387
O -6.5394 1.02177 8.10464
O 4.80666 -2.11864 1.47823
O 6.75455 -7.6606 2.07584
O -5.24413 9.34413 7.42373
O 6.33201 -8.63712 -1.34915
O -0.772455 10.3198 -0.411213
O 10.4823 -6.24033 -7.93788
O -0.246887 -3.63556 5.0567
O 2.79913 2.06052 -2.44696
O 2.89842 -7.90858 -7.67728
O -3.46786 -1.24335 8.36406
O -1.39236 8.11119 0.916334
O 3.02468 -1.856 -0.330077
O 0.32808 1.17334 -1.97214
O -3.34599 2.11576 -4.93897
O 10.1529 -7.58625 6.51791
O 6.63094 8.03313 7.58286
O 10.2936 7.40867 -3.26403
O -1.64776 0.128746 -8.76585
O 9.52861 0.63363 -8.35681
O 1.91053 10.4253 -3.87853
O -7.30204 -2.87528 -8.14565
O -0.276551 -6.79942 -3.33861
O 0.0945874 3.92979 6.91331
O -1.17252 3.77605 -5.14321
O 2.82207 -0.520798 -6.24056
O 1.71281 -0.00881843 6.25467
O 4.26692 4.80087 -6.47345
O 1.94286 -9.50891 1.93367
O -7.18533 -5.24267 -9.28345
O 8.20311 -9.8235 4.15617
O -9.67829 3.01742 4.86165
O -9.97416 -7.8881 -3.81572
O 10.1399 2.94234 -4.1849
O -5.99941 4.08175 -6.71598
O -1.08873 1.23916 6.9027
O -4.29164 -1.03878 3.68886
O 6.82731 -6.3741 -0.036559
O 2.46114 9.3778 9.01655
O 6.27304 -0.134555 5.03146
O 4.59989 8.74402 5.73716
O 5.6908 -5.51439 7.35494
O -5.3993 -2.29574 -3.50058
O 1.91756 -8.49093 -5.24304
O 5.79251 -8.96185 4.17383
O -8.27707 -5.15658 5.41813
O 0.564544 -6.75584 5.49996
O -0.00963439 6.16332 -5.34447
O 0.93648 8.63045 -2.28253
O 3.64372 -5.64111 -6.73664
O -4.74783 5.99421 -7.83608
O 7.48001 8.78057 -7.41168
O -0.313326 -5.66137 3.40486
O -5.18312 -8.0671 -4.81213
O -1.59918 -6.64644 6.98193
O 9.54442 0.755529 8.74974
O 1.16413 10.4399 4.34447
O -8.24175 6.02964 6.21245
O -6.75322 6.53435 -2.22063
O -5.99047 -3.39771 -1.10961
O 1.00396 8.55262 0.191768
O -10.2189 -1.35355 -9.52059
O -7.29952 -5.78777 -0.973271
O 4.6986 9.96364 7.91048
O 2.18797 -6.2516 3.55606
O 0.811046 -7.38175 7.98862
O 9.24195 -2.59802 0.84731
O -0.868854 6.18092 2.5825
O 4.65654 6.89151 -8.00825
O -8.14627 -3.28474 3.20798
O -1.41155 -0.719852 -6.35035
O 0.629352 0.762628 -6.96871
O -2.75924 3.10956 5.76152
O -9.08202 1.60733 8.01059
O 8.13026 6.10019 3.67124
O 3.73592 -5.239 5.47757
O -7.93861 -2.19726 -3.71538
O -3.24618 4.17145 -6.6751
O -9.67876 -0.526375 -7.0261
O -7.94973 7.62712 4.19681
O 9.53601 8.64342 -1.15507
O -3.23008 -6.74383 -8.96671
O -6.37884 4.04617 -2.84356
O 7.53596 -7.40036 -9.38281
O 0.195481 -4.30999 -3.21698
O 0.530496 -2.2233 7.1393
O 2.71338 -8.11656 -0.183462
O -7.82872 -5.81346 3.04469
O -9.59061 -4.47116 1.39498
O -2.88303 -0.377391 -4.37593
O 5.39296 2.68476 -6.19351
O 9.25513 -4.43194 -6.36506
O -9.54196 -2.27318 0.0924504
O -7.09023 3.67004 4.56386
O 5.60166 9.81904 -1.51029
O -6.0373 2.97072 9.86781
O 8.53723 8.73591 3.53068
O -8.75664 -6.29436 7.47627
O 8.96126 -7.77059 0.425265
O 9.38048 5.30099 -4.31224
O -8.23134 -0.75813 7.39165
O 8.10588 -1.69487 4.63489
O -9.16581 7.21033 -1.22168
O 3.15253 -8.5082 -2.85125
O -8.73297 -7.45005 5.14448
O -8.8329 0.204006 0.686373
O 2.83027 -9.07894 8.34246
O 3.20939 -6.47452 7.76645
O 6.36314 6.78252 -6.10793
O -0.443562 5.13275 9.19274
O -1.54553 -2.98598 -1.76606
O -3.61249 -5.63895 -5.02931
O 8.19306 -0.283097 1.79998
O -1.85715 1.72584 -0.178421
O 3.907 -4.14589 3.04838
O 6.64579 -6.09924 -2.52668
O -5.74068 -10.04 -6.57982
O -4.28646 1.15357 -0.22127
O 1.90671 -5.34824 -4.67062
O 7.74919 10.3722 -0.273737
O -1.94084 -2.9854 7.03438
O 8.41184 -0.346864 6.74211
O -8.8283 0.780054 -9.10242
O -8.36066 3.36501 -5.29302
O -2.71935 -7.65032 -3.92262
O -5.62616 -7.27482 -8.3696
O 2.8372 2.21086 -6.28257
O -4.59054 3.58133 -8.90835
O 2.96579 4.55929 -2.2473
O 5.56431 -1.94619 8.74292
O -7.13654 -8.23026 -0.120421
O 0.176475 7.72575 8.98601
O 9.06421 -9.87087 -5.13881
O 1.98815 -6.43938 -2.23183
O -3.17966 -8.28524 5.84438
O -8.71598 -8.94673 7.43898
O -1.90551 0.685068 9.17019
O 4.2974 -1.60438 3.86823
O 4.77499 -6.59896 3.49867
O 5.57192 -3.81844 -3.38635
O -5.1248 8.7881 -7.96447
O 6.72649 -3.0511 10.9057
O -4.16741 -9.40796 -8.44225
O 7.21322 -5.52531 -7.51009
O 1.49602 -10.1279 -7.34938
O -6.68368 -1.80448 4.66474
O 5.51535 -1.37738 -2.44143
O -6.23191 1.71179 -9.73758
O -4.04525 6.62674 7.57185
O -9.22974 -0.739912 -1.92713
O 2.9279 -0.156408 1.60613
O -2.49757 6.83645 9.54897
O -7.92267 1.31113 5.74917
O 8.39346 7.11224 1.35588
O -3.16515 5.14358 -1.0648
O 7.46047 8.95991 -4.91219
O -1.70942 7.74948 -6.192
O -1.73576 -0.797957 3.11195
O 8.21729 -5.88668 7.09291
O -1.65914 -0.503319 -1.36942
O -5.17588 8.6918 -2.9375
O -4.91248 -3.65363 4.24426
O 0.0949978 -4.85883 7.1668
O 8.6771 0.837067 4.21996
O 4.54471 -1.43959 6.42776
O 0.405247 -0.810413 1.5985
O 2.2262 8.19782 4.88202
O -4.06607 -5.63793 5.8187
O -9.29125 6.68622 -5.24955
O -10.3329 -3.63515 -8.38625
O -3.30766 9.83504 -6.68008
O 7.56232 -8.31551 6.15199
O -6.47129 -4.97477 7.25257
O -9.38594 9.48792 7.34546
O 9.22529 -3.30228 -10.3146
O -9.56833 -7.38076 -0.720364
O -0.674589 10.3711 -3.00965
O 7.34697 -3.66934 8.43238
O -7.31037 8.35426 -4.62283
O 2.03754 5.09637 6.01008
O 3.62226 -10.4507 0.0510868
O -2.5835 -6.5282 -1.54008
O -5.87474 -10.4957 0.662189
O 8.55123 -6.57011 4.69346
O -6.85723 5.83119 -4.61148
O -4.40531 -2.03168 6.10368
O -8.21798 9.78009 1.59974
O -6.92575 7.25176 -6.78195
O 6.55679 10.2483 5.98965
O -3.40442 -4.09552 -9.64606
O -0.186211 10.2064 2.1161
O 1.53844 0.929672 -4.40806
O -4.5886 3.95047 4.07469
O -2.40985 -3.08209 -5.29649
O 3.94999 8.17897 3.03791
O 4.77317 -1.7722 -4.82385
O -2.76431 8.1698 5.74298
O -4.57256 0.9701 -2.85753
O -8.64954 -3.52672 7.43671
O 3.26401 8.34927 -1.25152
O 7.84418 6.28964 6.13593
O 7.12454 -2.78503 -11.8218
O -2.28289 10.4018 4.51571
O -6.17734 8.45328 2.49337
O 9.25528 -7.638 -2.11212
O -9.4446 5.95182 8.49086
O 1.65886 2.3894 5.46915
O -10.2578 -8.32185 -6.7114
O -7.29521 2.13229 -7.39756
O 6.97892 -3.09022 -6.74171
O 7.07624 -3.86305 5.85191
O 8.11003 -3.95181 -2.64886
O -5.41451 5.30715 0.226868
O 4.24348 4.92425 6.76434
O -0.679123 -3.11971 2.65193
O -6.98247 -4.34806 1.0628
O -6.68783 -0.327109 -8.18183
O 8.61615 -5.97674 2.10456
O 2.49947 6.99681 7.84844
O 10.0648 -4.37577 -0.780743
O -3.4526 -8.59357 3.32426
O 8.70922 -4.1919 3.88764
O -3.5794 -7.56867 -6.63665
O -6.41858 3.97086 2.15524
O 4.51261 -6.79096 -1.40942
O 3.10157 -3.18062 -6.15642
O 6.95016 -2.37526 -9.22414
O -2.40233 8.01165 3.19499
O 9.83458 -0.471642 -0.260841
O 3.29192 -2.72356 -2.86968
O 10.0709 -9.65494 -0.809842
O 6.74494 1.0238 -2.06405
O 4.96565 -1.68457 -7.39084
O -3.74277 1.27856 -9.86884
O -2.75516 0.700878 4.89914
O 0.891578 8.27034 -6.9888
O 3.95806 -3.78955 7.65342
O -5.11955 7.96136 9.46074
O 10.1393 9.79498 1.03784
O -4.64518 -8.21685 -0.655339
O 9.08105 7.32009 -5.81666
O 5.17747 -6.50901 -8.6217
O -5.87777 -0.714576 -1.41982
O 3.4946 9.01988 -6.95703
O 5.58299 3.73926 1.71042
O 1.14082 9.10697 6.91032
O -0.40891 8.56687 4.85379
O 6.24432 4.75776 5.03475
O 7.89578 2.26501 2.0747
O -9.33453 5.88722 3.65779
O -9.6288 7.80335 1.99655
O 6.9842 -4.7833 -9.94956
O 4.23516 5.94772 1.82559
O 7.12385 -4.89268 -4.90344
O 1.40009 0.555873 3.5734
O -3.55631 -1.40393 -9.97837
O -7.49674 3.99214 -0.482327
O 0.305995 4.41242 4.25691
O -6.47773 1.83803 -1.4205
O -7.78122 -7.78395 -2.58117
O 7.63211 2.09052 -7.35118
O 1.08247 3.92542 -0.55031
O 3.96723 4.15511 3.82751
O 1.19332 -4.87449 -7.01961
O 0.872771 -2.36983 -1.94947
O 0.206505 8.639 -4.71048
O 0.0801593 3.8379 1.78215
O 9.33949 0.453688 -5.95039
O -4.75408 5.33511 9.8755
O -2.01318 4.01626 3.42931
O -9.15893 -2.16581 5.39727
O 2.01508 4.5137 8.43628
O 7.35712 -0.938434 -0.552449
O 0.357053 -7.40342 -7.13788
O 9.37571 6.11781 -0.90522
O 4.9041 -0.140425 -0.226764
O -2.98677 5.64562 5.31956
O -2.50916 -4.48915 3.96542
O -6.12437 -10.3885 -4.07865
O -3.1321 6.12953 1.32125
O 8.34728 -8.5046 -7.21678
O -8.76434 -3.43242 -10.2994
O 10.3822 5.50162 1.40108
O -4.75553 -10.1422 5.24789
O 9.28153 8.11547 7.60528
O -7.30128 7.62481 8.0936
O 0.540998 4.70341 -3.1957
O -7.20187 10.0337 8.68673
O 8.99472 -7.33658 -4.882
O -1.7013 1.84664 -6.84704
O 2.79512 3.70882 1.43479
O -4.88009 -5.55764 -0.269165
O -8.70866 -0.724382 3.20317
O -4.57211 0.82186 9.70862
O -1.89177 -1.84805 0.71566
O 6.70155 -9.52483 -4.86099
O 1.4751 6.37928 -1.21343
O -3.09763 7.41949 -2.12064
O 10.2722 4.75036 6.75882
O 10.4423 -1.57739 7.77287
O 3.88351 3.51773 -4.35731
O 1.25151 1.66581 1.10915
O 2.4047 -0.381638 -2.29836
O 9.79107 2.33765 6.80714
O -6.33929 -1.72713 -5.92244
O 2.85383 -1.49328 8.14229
O -2.9115 10.0424 -1.87974
O 3.66371 0.64709 4.97475
O 9.99681 -8.56843 -9.08623
O -7.97756 5.72368 1.4154
O -5.72972 8.46149 5.00844
O 7.59284 -10.0734 -9.12643
O -4.30322 -6.16213 3.24348
O -5.28549 -8.17701 1.70791
O -6.96695 -5.97838 -6.76174
O -3.50355 1.11761 7.36161
O -3.81502 -2.05327 -1.31508
O -10.2851 10.0518 3.41837
O -6.95162 8.21826 -0.0171827
O 7.75302 3.61822 -5.39274
O 7.42297 -0.583704 -7.33626
O -3.59005 3.43713 0.833333
O 6.26954 7.51584 2.66318
O -1.49781 6.65526 7.30874
O 6.52351 4.64663 -7.36674
O 4.90137 8.30898 0.615718
O -3.05387 -4.59937 -7.28771
O -7.54791 9.06284 -2.27488
O 6.30086 -3.15479 3.43739
O 7.89094 4.6731 0.881278
O 10.367 0.951003 2.29169
O -3.20591 -7.02363 1.05011
O -4.38003 7.6299 -6.01168
O 5.24729 3.00449 -2.3099
O 4.26915 6.49039 4.77066
O -1.14933 -5.46295 -6.01503
O 9.71299 9.74789 5.71343
O -1.47526 -8.67664 -1.95343
