582
Atoms. Timestep: 1790001
Si -6.02653 4.6279 10.2668
O -5.94194 3.86043 11.7964
H -6.66193 3.26129 11.955
Si -6.63889 7.61929 11.1457
O -7.18718 7.43442 12.7293
H -6.7196 7.92838 13.3925
Si -2.00806 -7.6725 -10.035
O -2.10966 -6.72964 -11.3936
H -1.36248 -6.14433 -11.4341
Si -1.6183 10.224 -10.5166
O -1.98713 9.56185 -12.0878
H -2.34307 10.2022 -12.6926
Si 2.51067 2.9357 -9.19457
Si 1.27418 -1.34026 8.38568
Si 1.64628 5.22527 -9.18749
Si 2.73052 -3.09981 9.41514
Si -6.30599 4.79439 -0.471827
Si 6.11612 -3.10054 -0.969206
Si -2.24489 0.322773 4.25339
Si -2.65515 10.2615 -5.77906
Si 5.06964 -4.08903 6.77131
Si 1.02947 0.431187 -8.25591
Si 6.9594 -6.9562 -5.72251
Si -0.541031 -3.05782 -5.74812
Si -4.87864 -7.47085 4.62504
Si 10.4181 1.14756 8.71786
Si -6.94907 -5.6569 -7.5752
Si 2.02774 -4.47633 -7.19269
Si 4.71182 -4.27252 1.60665
Si -8.12055 -5.31759 -2.42104
Si 10.3865 3.67355 -1.39264
Si -8.50121 3.49844 8.49862
Si 9.11784 1.04628 -2.49226
Si 8.63954 -3.84213 -8.99588
Si 8.82106 6.0277 -2.4973
Si -9.88009 -1.95628 -8.5795
Si 1.8835 8.76191 9.78949
Si 7.51962 4.24408 -6.59666
Si 2.365 10.1973 -5.45836
Si 4.73313 7.0476 -2.94705
Si 10.4233 1.08094 -7.73851
Si 9.92008 -4.61325 1.88693
Si 7.87961 9.27967 6.5036
Si -7.45497 0.698183 3.75643
Si -3.82015 8.56982 9.9331
Si -9.56503 9.41365 2.11681
Si -5.646 9.49616 7.74381
Si -10.3313 -0.135966 -4.85065
Si 4.44181 -8.31171 3.90647
Si 1.87513 9.88355 6.8798
Si -3.59111 7.90392 -1.86924
Si -0.611917 -4.4446 5.37877
Si -10.4575 -10.3631 7.44751
Si -8.37321 9.14676 8.95676
Si 3.91103 -10.4986 -8.24538
Si 4.96181 -4.63818 -6.086
Si 2.68185 5.03205 -4.244
Si 7.27837 -10.3038 -3.15023
Si 6.3273 1.88036 6.78472
Si 3.95297 -10.415 8.87968
Si 8.86644 -2.3208 -4.32243
Si 1.0328 8.29103 1.17049
Si 7.08104 1.89387 -4.71676
Si 7.25828 9.48991 0.83263
Si 5.85806 2.27295 0.160104
Si -4.25486 -3.58113 1.88177
Si 8.55058 -6.7977 -8.37399
Si -4.78278 5.2841 5.7773
Si 2.86641 -5.84179 8.0233
Si -9.03626 -9.15225 0.195202
Si -4.0774 -2.38595 -7.76314
Si -2.50563 -4.93673 -7.07122
Si -0.836376 6.25131 -7.56726
Si 6.23277 -9.11705 6.11332
Si -9.62991 -8.04209 -2.60355
Si 7.17346 6.89927 -4.99541
Si 5.23621 8.16496 7.2656
Si 8.35254 -7.38517 -2.98877
Si -6.96646 -4.51349 0.524172
Si -3.92389 3.22925 -0.864828
Si 5.30649 2.52523 -8.09198
Si -10.3268 -3.25537 -2.17888
Si -4.61862 -8.20384 -2.96432
Si 0.316336 4.67259 -2.38118
Si -4.93062 -2.80389 -4.69152
Si -0.896116 2.58614 -0.520701
Si 1.32145 -2.44561 4.34443
Si 9.49747 5.48772 5.50146
Si -9.31439 -2.37365 0.543996
Si -2.94501 -5.78272 3.74123
Si -0.012469 -6.43301 -8.10798
Si -4.90403 -0.701316 2.97061
Si 4.2036 10.1743 -2.86561
Si 6.94328 -5.26895 8.77229
Si -2.77917 -6.84534 -0.764647
Si -0.368074 1.32437 -5.73891
Si -4.23332 3.71237 -4.07855
Si 9.20533 8.93512 -1.33116
Si -0.354549 2.66871 5.19704
Si -6.64989 1.89492 -4.38567
Si -2.41355 -10.4812 -2.86254
Si 2.60066 6.40036 8.41869
Si -0.162658 -10.1086 2.08522
Si -10.4687 -0.0431049 4.59472
Si -3.74158 -10.281 5.50134
Si 0.940742 -2.05408 -3.13779
Si -0.69784 6.52317 7.65095
Si -1.72119 5.43207 4.97665
Si -7.63021 6.95418 1.65013
Si -3.4723 -1.52271 -2.2619
Si -10.4644 4.23907 -7.29663
Si -4.34823 -7.15057 -7.89557
Si 6.40567 6.59655 1.2819
Si 1.3455 -7.71821 3.46086
Si -7.76324 -7.95535 4.99232
Si -0.979484 -9.79745 7.09936
Si -3.08767 10.0322 2.6067
Si 2.18371 -6.09594 0.830086
Si 7.54641 -0.39412 -0.222841
Si 8.46803 -8.17345 4.07833
Si -8.45888 6.57029 -7.08192
Si -8.32571 10.0048 5.06077
Si -2.13992 -3.71361 -0.29873
Si 3.42145 -0.716898 -4.8735
Si 4.25257 0.516798 4.71904
Si -8.44747 4.3323 -5.04606
Si 1.57069 3.50402 2.79952
Si 4.13765 2.31176 -5.07751
Si -0.845694 -1.60867 6.22696
Si 10.4112 3.21559 1.59818
Si -9.14266 5.13725 3.62059
Si 0.388312 -6.98379 6.44773
Si -2.9754 8.37379 -8.23558
Si -0.889045 6.84464 -0.66987
Si -1.24834 4.18882 -5.13686
Si -3.52235 5.65046 8.65457
Si -0.899208 0.284313 -2.75765
Si 3.62814 5.06882 4.72903
Si -9.78243 9.04176 -5.48004
Si 1.4511 -1.34456 1.36639
Si 1.10922 10.2045 -9.06991
Si -1.17844 0.286863 1.3092
Si -5.09499 8.61373 0.667784
Si -5.76209 8.0854 -7.24806
Si -0.350166 5.87879 2.11301
Si -8.92107 8.94442 -2.39876
Si -8.38808 -9.08421 -5.3468
Si 7.76121 -0.254399 8.68098
Si 10.2008 -4.03603 -6.37363
Si 5.6594 -2.53965 -3.89268
Si 6.79898 5.22396 4.1067
Si -1.5577 -0.520293 -7.55513
Si 7.56023 2.47624 2.85731
Si 4.46131 -2.54731 4.32757
Si 8.20335 9.76872 -5.98626
Si 8.13554 -0.702233 2.90574
Si -3.715 -7.85461 1.97463
Si 1.94385 1.24857 6.92122
Si -0.456032 -9.01665 -0.894503
Si 3.85242 8.05101 1.76884
Si -7.33392 3.35445 5.5471
Si 3.84815 3.59289 7.52844
Si 1.52747 7.30019 -5.92851
Si -5.19395 6.77686 -4.43647
Si 2.7887 -8.8116 -0.709056
Si -5.53449 -9.78951 -6.48837
Si -5.86344 -5.79924 -4.56095
Si 6.51342 -6.12114 3.19059
Si -4.09385 0.253511 0.0600393
Si 9.33067 2.42396 5.98141
Si 8.10247 -3.61794 4.25811
Si -8.7663 0.741035 1.00242
Si 5.72982 -2.53721 9.30943
Si -7.07122 -2.44529 -8.1147
Si -7.81298 2.23173 -1.4845
Si -7.63353 6.27445 -2.79413
Si 9.42809 -4.39266 7.09448
Si -0.0728604 -9.21903 -6.59465
Si -0.966579 9.25773 9.38217
Si -6.78112 7.36547 6.10087
Si 3.2803 1.23934 1.75348
Si -10.3754 -7.41749 6.38574
Si 6.20001 -2.4936 -8.19823
Si -9.58957 -6.81388 -7.2411
Si 2.90751 7.77355 -8.52062
Si -6.53922 -10.2597 -1.25831
Si 10.1954 -1.52112 7.33902
Si 6.28256 4.9604 -1.13784
Si -7.2988 -0.984542 -5.32932
Si 8.49739 -5.17561 -0.85082
Si 3.23033 -1.75424 -7.88353
Si -9.37897 6.42964 7.48462
Si 1.00927 -3.59104 -0.515933
Si 6.80392 -9.20779 -7.74602
Si 7.3414 0.314766 -7.39183
Si 5.28452 -7.71763 8.76698
Si 8.6513 9.72872 3.45684
Si -8.72203 -6.67242 2.15996
Si 4.87181 -10.0043 1.23706
Si 3.3935 8.07754 4.86253
O 1.89162 4.02871 -10.3049
O 1.52603 -2.03585 9.82615
O 0.00658677 6.11623 -1.7383
O 7.67504 -2.0794 3.68601
O 0.989221 9.80279 1.6237
O -6.29496 -0.38204 3.71125
O 8.68623 9.46819 0.0709575
O -5.11188 8.2042 10.9492
O -8.74338 -8.65639 -3.7896
O -9.12599 -7.96171 -6.24782
O -8.30392 5.07153 -3.59084
O 2.82086 7.27161 -6.97489
O 8.39265 9.2073 4.94736
O -5.68151 -9.22292 -2.20429
O -9.09848 -0.852302 1.04235
O -7.89697 -3.15225 0.81168
O -1.5742 -9.58176 -6.20695
O 6.39241 -6.67116 9.27464
O -5.69442 6.52887 5.25871
O 9.52752 -3.6987 -4.92119
O 7.55799 -8.13205 -8.73067
O -6.24396 7.90298 1.55235
O 9.71729 -4.33423 -1.55078
O 2.37307 7.23755 9.84452
O 3.40388 -4.93866 -6.45315
O 3.9621 7.16011 7.74575
O 1.63062 0.128179 8.00108
O -0.205289 -1.48544 7.72807
O -1.00189 8.02224 8.32184
O 2.61162 -10.0509 -9.13747
O -7.5394 -9.44641 -0.315111
O 7.35926 8.31194 -5.88773
O 7.43408 9.49665 2.43954
O 9.7238 9.22607 -5.83565
O 10.0137 1.91112 7.34653
O 3.30785 4.90599 8.43859
O -1.30607 -3.11604 5.90753
O -0.513601 -8.22261 6.95163
O 2.85864 -8.19855 3.73407
O -6.58631 6.11258 10.5216
O -2.94864 -1.20734 -7.91997
O 2.91909 -2.48585 4.63959
O 1.19183 -1.99312 2.81261
O -0.935148 4.11111 5.51551
O -3.32077 -9.22281 -3.32908
O -2.32543 -0.414844 -2.66851
O 7.98335 -0.706541 1.31034
O -3.61131 -7.40016 0.491764
O -5.4982 -2.17183 -8.51984
O 6.23743 1.16363 -8.24604
O -0.812097 1.8372 0.923643
O -4.21948 7.34803 -3.20825
O 9.09443 2.85657 2.47827
O -6.55492 -5.98085 -6.05663
O 3.65417 -9.3774 0.506581
O 9.89467 1.42548 4.84698
O 6.29523 -10.2944 0.458598
O 7.50552 5.06911 -2.08685
O -0.0147442 10.1888 -10.2332
O 7.85117 1.24299 -3.52901
O -7.6818 2.97016 -4.98631
O 3.82016 1.07286 3.26935
O -7.61803 9.80946 -2.08564
O -7.06503 5.78118 0.633658
O 1.53014 1.74685 -8.96683
O 2.72766 -7.2198 -0.204486
O 2.50908 -3.16564 -7.85105
O 7.07604 3.64357 3.82568
O -4.93241 -8.54439 -7.42632
O -9.39332 -10.3741 1.13227
O -7.3029 -1.53095 -6.89142
O -2.44528 -5.27414 -0.53027
O -1.43734 -0.0388691 2.87684
O -8.90728 0.177692 4.2309
O -2.01547 -9.26201 -10.3744
O 7.5877 -6.87157 -4.26172
O -7.09088 1.9408 -2.88152
O 6.68301 -1.65099 -0.737363
O 2.24612 -1.38663 -4.03525
O -8.82331 -0.821171 -4.72838
O -8.97769 7.72077 8.33885
O -1.789 -4.09823 -5.82856
O -1.84073 5.5375 8.36381
O -2.60147 -7.0928 2.86617
O 5.09072 -9.18425 2.59826
O -6.82603 -9.31368 -5.6795
O 1.60635 8.72941 -8.76133
O 9.73407 -7.63097 5.01399
O 9.22036 -4.08282 3.20138
O -9.92486 1.84902 1.18634
O -1.59051 0.688593 -6.56194
O 3.12468 6.44635 5.02412
O 5.17505 6.06599 -1.73105
O -5.00945 -4.41012 -4.57896
O -6.99666 -5.57802 -3.47968
O -5.18363 2.54104 -4.43204
O 0.0516692 -7.62018 -6.94906
O 7.78213 -7.11996 3.10635
O 2.95635 -10.0832 7.65359
O 5.74863 3.40215 -0.938935
O -9.31531 4.94248 8.19909
O -4.59937 9.60417 8.94788
O 4.60141 -3.23209 2.83953
O 6.04225 -8.28328 7.46224
O 2.57021 6.49699 -9.40221
O 4.48009 1.77095 0.791036
O -9.54135 10.22 6.20941
O 8.62389 -1.17183 7.71488
O -4.03819 3.5407 -2.49148
O 5.68149 -3.77232 -7.24869
O 1.40473 -5.70207 -8.07807
O 6.69625 2.69507 1.48925
O 3.97608 -6.82393 8.59111
O 8.46984 6.51139 -4.04131
O 3.63468 4.02766 5.96523
O 4.08327 8.89132 -8.64326
O -7.61781 8.6049 10.3137
O -7.71538 1.09519 2.23355
O 4.76277 -0.937482 4.46982
O -3.49459 -6.18674 -6.83352
O 0.722897 -3.97357 -6.27648
O -10.4124 -3.28736 1.28465
O -0.0515068 8.1401 -0.0763668
O 0.45683 7.26038 2.23499
O 0.938609 6.26867 7.88546
O 2.2707 4.18795 -8.15072
O -9.67915 -2.34075 -1.01591
O -3.26612 9.49492 -2.04424
O 3.53745 8.23767 3.33428
O 5.34332 1.3221 5.61409
O -9.85826 4.13346 -5.75426
O 4.86781 6.88419 1.58757
O -4.53397 8.01742 -8.35193
O -6.474 -2.16113 -4.55795
O -2.70574 -2.65879 -1.4945
O -0.563854 -9.48629 0.645425
O 5.36355 -2.96348 -2.3458
O -3.42084 9.86441 4.14248
O -6.56329 5.56937 -1.86483
O 2.2128 2.45749 1.84659
O 0.638815 4.59857 2.15921
O -2.42879 9.36199 -9.45916
O 2.7557 4.38249 3.52979
O 0.815778 0.738539 -6.63735
O 7.75224 2.2517 6.26848
O 3.20681 10.3619 -6.8279
O 2.36487 -2.39682 7.88467
O 7.07822 0.787741 -5.88843
O -6.30374 -7.32007 5.26332
O -1.4863 10.1867 2.5802
O -2.04977 7.06988 -8.22275
O -2.24702 7.25423 -1.4347
O -4.55086 -2.36487 -6.19834
O -10.1144 -0.344996 -8.4377
O -2.31854 3.27875 -0.544697
O 10.3173 0.650728 -3.48934
O 9.16355 9.82999 7.33412
O -4.46176 4.76383 9.68133
O 6.88257 8.13067 7.18573
O 7.83324 -10.3526 -7.22916
O -8.85266 -7.59988 6.0612
O 1.51346 -6.83989 2.12179
O -4.32917 1.76174 -0.39042
O -1.18649 6.57206 6.06801
O 2.90277 0.661456 5.67689
O -10.2023 0.778478 -6.16886
O 7.05608 -4.82499 3.98222
O -1.4893 -7.71349 -0.953348
O -10.0191 -5.38291 -6.5122
O -5.87113 4.06756 5.69987
O 4.7797 -9.1235 9.34282
O 4.16148 -2.50396 9.85664
O 0.445729 -10.4636 6.60757
O 1.13857 -8.87349 -1.09288
O 6.16416 -5.15134 7.27096
O 3.38557 -1.27375 -6.32937
O 9.46878 -1.14292 -5.17383
O -4.0906 -2.13824 -3.5609
O -7.26077 3.90521 9.48198
O 0.815106 -7.13829 4.88316
O -4.54139 7.75606 -0.56397
O -1.88391 -0.644374 5.53092
O 2.53732 -4.63798 9.18989
O 7.29477 -2.43384 -4.18602
O -3.75639 0.0488608 3.83749
O -9.06893 -4.0907 -2.78639
O -4.35693 5.42952 7.3163
O 6.93952 5.60313 -5.87371
O -6.71473 7.00473 -3.94684
O 10.497 5.8193 4.28111
O 9.77499 -2.28464 -3.0051
O 6.60331 -8.40006 -6.37335
O 9.4075 2.45275 -1.75165
O -3.91963 -6.23926 4.95609
O 5.13795 -3.53641 0.277826
O 7.21071 -3.14811 -9.26232
O -9.24873 2.96746 -1.65932
O -4.83971 -0.0509638 1.44118
O -4.42305 -0.78056 -1.15226
O -9.84207 -8.89014 -1.18986
O 7.96441 -6.42361 -6.88565
O -4.84985 10.1142 6.53525
O 9.91505 -2.8541 -9.32207
O -9.00541 -7.86083 1.14631
O -1.25465 -5.4783 -7.86127
O -7.1138 9.92239 8.19013
O 3.37931 3.73995 -4.82494
O 7.51548 0.888968 3.15122
O 0.273443 -0.839603 -2.41639
O 3.50861 -9.76027 -1.83286
O -8.15638 1.02731 -0.453449
O 4.82176 9.49682 8.12584
O -4.24994 -8.87423 5.01232
O 1.68166 8.73848 -5.36375
O -10.2223 2.68584 -7.97812
O 7.98029 5.69178 5.15701
O 0.640473 1.97212 6.26962
O -7.08909 2.00525 4.70622
O 3.37224 0.920456 -4.73965
O 8.33702 -6.45151 -1.67729
O 5.20723 -3.40657 5.35069
O 5.17732 -6.88732 3.79035
O 10.191 3.98864 0.198114
O -3.38936 -3.84727 -7.91871
O 1.27533 -5.05299 0.030023
O -5.19962 -7.17411 -4.08555
O -8.86176 8.06804 1.45902
O 0.128894 3.6315 -1.14772
O -1.13516 6.02902 0.691858
O 0.322222 -10.0959 -7.86198
O 8.2045 9.70656 -2.33525
O -1.1975 5.30128 -6.31099
O 0.157631 5.5952 -8.63129
O 8.78322 0.900599 -7.85079
O 8.78487 -9.62007 3.49716
O 10.0811 -7.24129 -8.13301
O -0.570013 4.45995 -3.72465
O 4.74067 -1.80454 -8.51574
O -3.22044 -7.35781 -9.04971
O -2.7792 3.76227 -4.75573
O 6.76341 7.98675 0.545228
O -8.369 4.26414 4.71052
O -6.66784 0.430746 -5.08316
O 8.96668 7.36573 -1.61418
O -7.38956 -4.88516 -1.02304
O -9.21848 7.64768 -6.20799
O 9.94762 9.13999 2.61877
O -9.52812 2.37757 9.18767
O 1.72961 -2.47432 0.339307
O 9.65908 -0.570551 3.32249
O 10.2633 -5.82882 6.85056
O 4.09571 2.62238 -9.18413
O -4.9717 -7.48176 2.95146
O -7.02617 -4.05032 -7.67625
O 4.83954 -1.20124 -4.22812
O 3.64556 6.1593 -3.6819
O 7.01103 6.1846 2.75074
O -3.556 -9.46012 2.05882
O 3.41051 -5.18696 1.40342
O -1.6036 -5.15225 4.32784
O 6.62065 5.36349 0.335652
O -0.797304 -1.80891 -6.76345
O 5.36479 -9.859 -8.19749
O 0.0509876 -0.61722 0.879372
O -3.88927 9.00203 1.65479
O -5.64625 -6.23866 -8.29959
O -2.08135 9.84228 -4.32215
O 8.95105 -3.94599 -7.38642
O -10.0472 -0.368162 8.30236
O -3.64673 -4.70926 2.83451
O -0.552503 0.78392 -4.22834
O 8.98178 -5.21381 0.705098
O 2.5364 7.87542 0.923742
O -0.526097 2.89302 -5.6728
O -8.92419 -6.66711 -2.1324
O 0.524414 -1.40625 5.27203
O 7.30012 -8.28237 5.14734
O -7.55888 -5.67918 1.45775
O 8.56462 -5.47271 -9.28265
O -8.07724 6.22819 3.01523
O -8.56523 7.38824 -2.11344
O 4.90278 -9.09381 5.24265
O 5.05277 -3.64172 -4.85478
O -8.04466 6.48718 6.51976
O 8.94032 0.71829 9.36326
O -0.988078 -10.4186 8.54293
O 6.69088 0.928652 -0.337384
O 0.453632 -9.00262 3.03336
O 4.49478 9.4542 1.42403
O 9.92361 -7.71991 -3.23122
O -4.17052 -10.2365 -5.67789
O 10.2967 -8.73719 7.2895
O -7.40968 8.71028 5.41073
O 5.93883 -5.41403 1.90852
O -0.59042 -3.53146 -0.311738
O 2.10811 -0.698065 -8.5092
O 4.48027 2.24152 -6.67466
O 1.22661 -3.16819 -2.0544
O 0.736455 -3.80798 4.75729
O -8.37108 -2.25202 -9.05018
O 5.31238 -2.78669 7.74257
O -3.26653 5.18675 5.13044
O -8.26437 -6.3998 -8.04478
O -5.85608 9.72039 -7.06972
O 7.11199 -1.26116 -7.66699
O 3.69223 -4.87098 7.01661
O -9.63462 5.51796 -7.86457
O 1.61568 5.90943 -5.15348
O -0.0867762 -2.49507 -4.35527
O 5.25472 5.32525 4.39487
O -0.579248 -7.24311 -9.38316
O 5.6828 -6.0069 -5.79177
O 6.37356 -3.99287 9.61061
O 7.79203 3.15046 -5.38507
O 0.363621 9.08337 10.2456
O -9.38282 8.9156 -3.94065
O -1.14582 -9.96074 -1.99375
O -4.93498 5.2241 -4.29993
O 5.59625 2.27768 -4.40287
O -2.50778 0.0735913 0.466381
O -6.93286 3.32591 -0.671978
O 2.48963 -0.121858 1.39347
O 8.46381 -4.86906 8.346
O -2.3656 9.15519 10.2052
O 3.4207 10.3359 -4.25176
O 0.155862 7.31704 -6.76548
O -3.83615 -7.12305 -1.9543
O -9.96304 -2.8044 -7.16132
O 3.06475 9.86757 10.0192
O 0.722996 2.7988 3.96262
O -1.56944 1.71948 4.64381
O 10.0814 5.00887 -2.23585
O 5.7516 10.4605 -2.9784
O 1.74502 -6.64185 7.3647
O -10.005 -5.72597 2.29857
O 10.195 6.3696 6.7097
O 9.65914 3.93865 5.78165
O 6.0053 7.23468 -3.88111
O 7.60428 -8.76664 -2.66051
O 6.81914 -1.36795 9.47007
O -9.57599 10.2089 8.80843
O 8.77628 0.000386464 -1.28851
O -8.88787 9.73221 3.58578
O 8.96999 4.48404 -7.22328
O -7.13726 7.3175 -7.65621
O 6.41466 3.67004 -7.64047
O -3.61426 7.15592 9.17405
O -5.95285 7.94219 7.34778
O 2.31872 9.07456 5.57595
O 1.14565 -9.6767 -5.59004
O -0.410716 -0.0959076 -8.6639
O 1.79214 8.89588 8.13478
O -9.11019 -10.4986 -5.74094
O -5.1337 7.4055 -5.87268
O 10.3644 -3.13716 7.42636
O 8.61227 -3.80565 5.78433
O 4.75273 8.38773 5.68877
O -4.80935 4.37221 -0.162826
O -8.24708 -7.40836 3.54209
O -7.9792 3.07942 6.978
O 7.78919 10.4897 -4.65784
O -2.28343 -10.1558 6.26456
O 6.77485 10.4587 6.31768
O -7.88625 5.47812 -6.11247
O -1.28271 5.68207 3.44399
O -9.61585 4.11614 2.46348
O -3.05301 -3.21768 0.952436
O 1.76313 4.53584 -2.95337
O 2.81695 2.37861 7.68175
O 4.15454 8.52204 -2.6072
O 5.4005 3.04821 7.53119
O -7.59637 -9.55748 4.95726
O 7.22039 -4.2001 -0.95043
O -5.52115 -4.27026 1.04854
O -0.303419 -5.53456 6.49739
O 6.76215 0.757842 7.88987
O 10.428 -1.01145 5.8327
O -10.2363 9.25077 -1.54546
O -0.896075 1.40079 -1.61862
O -2.68557 9.12788 -6.83126
O -5.73908 9.80585 -0.236767
O -4.66667 -2.2589 2.6471
