594
Atoms. Timestep: 1790001
Si -7.82709 -8.29739 9.92773
O -6.91492 -8.15155 11.3261
H -7.42373 -8.16007 12.1283
Si -2.71069 -7.60878 -10.5955
O -2.6396 -7.71878 -12.3038
H -3.11372 -8.46346 -12.6547
Si -9.04598 4.39792 -8.77055
O -9.28898 3.70544 -10.3206
H -10.163 3.61932 -10.6827
Si -4.67573 -10.0769 -10.3178
O -5.03739 -9.96226 -12.0307
H -5.15676 10.1917 -12.4127
Si -0.0592332 -9.36263 10.4585
O -0.838173 -9.6001 11.9386
H -0.947753 -8.8267 12.4793
Si 0.426477 -6.22006 10.7746
O 0.463349 -6.33902 12.4997
H 1.13396 -5.83592 12.9465
Si 5.65748 -1.55291 -8.51018
O 6.20109 -1.21181 -10.1356
H 7.14503 -1.18741 -10.2399
Si -10.4936 -6.92232 11.1052
O -10.0051 -6.63674 12.7114
H -9.78336 -5.7365 12.9185
Si -1.97433 -4.2023 10.3453
O -2.43244 -3.82788 11.9113
H -2.09569 -3.00035 12.2343
Si 9.25769 5.93679 -8.52184
O 8.71616 5.63661 -10.1282
H 8.08912 6.24957 -10.4937
Si 3.02451 -10.4361 10.6586
O 3.29477 9.91545 12.19
H 2.64226 9.29847 12.4999
Si 4.47559 -4.50667 -8.83136
O 4.71706 -4.71296 -10.506
H 5.15165 -3.9781 -10.9227
Si -9.22304 1.54689 -0.940113
Si -5.26693 4.47175 4.78771
Si 3.29928 -6.93188 -0.0821093
Si 5.06265 -9.0019 6.86293
Si 8.09608 9.29601 -4.6052
Si -0.473785 4.08291 -3.66674
Si -9.94541 7.28516 3.35254
Si 1.47952 -4.81005 -7.7212
Si 4.1076 0.512704 1.66116
Si 4.81208 -2.60008 2.0287
Si -8.49166 -4.75092 6.6508
Si -6.34405 -6.7248 -7.23481
Si 8.9944 7.67363 7.84522
Si -2.01867 -8.03043 6.49004
Si 4.71039 6.50599 1.96218
Si 7.19737 -3.21339 -3.86715
Si -9.06141 -10.451 6.01487
Si 1.49463 -8.64126 4.19895
Si 2.92972 -6.89617 6.28471
Si 7.25595 -9.04367 4.53369
Si 10.1966 -4.49291 -6.573
Si -4.67922 -9.62103 0.361332
Si -5.76614 -4.97399 -2.54488
Si -3.28471 -5.67595 8.03785
Si -4.18604 -3.02919 -4.52356
Si -0.771063 -6.84541 3.88397
Si 9.15062 0.742952 6.73151
Si 2.63563 -4.30342 -1.9184
Si -5.54641 -5.36573 2.71292
Si -1.07967 3.81447 -8.71243
Si 5.12602 3.28294 -5.72977
Si 1.35534 0.46993 -2.30912
Si -1.23562 2.04716 1.80456
Si 9.94374 -6.74941 -2.05351
Si -7.07828 -9.49965 -8.26116
Si 2.68502 7.22017 -5.44454
Si -9.92287 -9.63753 -8.0288
Si 6.86701 10.2127 -1.07199
Si 7.3883 -6.01298 5.14755
Si -4.42729 7.95039 -9.17466
Si 4.62788 -2.05366 -2.70306
Si -4.16636 9.85018 -4.30275
Si -8.53157 -2.09607 -4.17889
Si -3.95509 -0.634847 -2.57692
Si 6.14662 -6.95612 -7.37951
Si -0.136927 -5.98135 0.457247
Si 10.0198 -3.33809 2.90835
Si -4.52176 9.61823 7.68414
Si -8.97928 4.77832 -1.20451
Si 2.16458 7.9512 -2.48833
Si 9.95665 6.53931 0.44286
Si 10.1567 -3.9481 -3.39164
Si -1.22764 -4.26076 -4.77968
Si -6.03444 8.97095 -6.65496
Si -5.09346 -2.85041 3.82902
Si 8.23874 -2.14559 -6.71529
Si 6.9231 2.54575 5.71353
Si -8.53271 0.280168 3.95985
Si -0.475745 6.66081 -2.29901
Si 3.82996 -9.92073 2.5316
Si -4.33349 -8.06015 -5.05854
Si 4.50835 -9.7348 -6.94699
Si -4.35693 0.206016 -7.35341
Si -6.85503 -7.43861 -3.50659
Si -9.15281 2.45193 -6.22569
Si 6.82687 5.12015 -1.68996
Si -1.0981 7.85196 6.1399
Si 8.79962 3.01552 3.27882
Si 7.59391 -3.58223 0.94934
Si 6.59798 -9.11189 1.589
Si 8.64854 6.33287 -3.80638
Si 2.47349 -8.68965 -4.98392
Si -4.53428 5.59171 1.94929
Si 2.71037 -0.737544 -4.89876
Si 10.347 -4.54048 9.04007
Si 8.33861 7.95125 4.85302
Si 9.16744 0.710483 -2.70497
Si -8.64051 7.60329 -5.57674
Si 1.5158 9.6405 1.35548
Si 6.88805 5.79274 -6.47222
Si -6.2893 -6.77476 7.49766
Si 7.45605 10.0202 8.84949
Si -8.22493 -7.66292 -0.997512
Si 5.5056 8.39617 -6.08161
Si 4.24886 0.770751 -1.31478
Si 4.06015 1.99882 4.43626
Si -7.3485 10.1915 8.38764
Si -3.77307 -7.07223 -1.09117
Si -3.97939 2.85394 -8.7168
Si 4.88657 7.61141 -1.03971
Si 1.61901 -9.59503 -7.78319
Si -6.28217 1.7221 -5.24997
Si -2.80501 -6.24794 1.80149
Si -4.9602 -1.19866 6.55469
Si -8.31261 5.4833 5.48096
Si -6.48313 6.60117 -0.126943
Si -0.121273 -7.35436 -8.76427
Si 0.658504 -8.76645 -0.139374
Si -5.94451 5.19067 -8.64356
Si 9.37456 -1.336 -0.278378
Si 5.01488 -8.06184 9.96968
Si -5.11477 -2.8322 -7.62948
Si 0.881841 -10.2281 -2.82343
Si -8.85278 -9.22332 -4.95978
Si 9.15972 -7.36431 -7.28154
Si -4.26196 7.19906 6.00259
Si 3.34448 -3.99658 6.8084
Si 3.01406 -5.88945 9.12349
Si -2.0118 -6.63048 -6.56191
Si -2.07177 5.13094 -6.04453
Si -1.52526 -5.52366 -2.0513
Si -2.38012 -2.82052 -0.788496
Si -2.29515 -2.80436 7.74766
Si 2.90182 5.0404 4.18193
Si 5.76033 -7.93062 -1.89496
Si -2.34658 9.90711 1.97037
Si -6.91655 0.159475 -2.58687
Si -7.25538 -4.81876 0.0601066
Si -8.02087 -1.6109 6.36978
Si 4.34358 9.37753 8.12302
Si 4.40357 6.98424 6.27688
Si 9.85461 8.68933 -7.22947
Si 0.798573 -2.1271 -0.520101
Si 8.62155 -1.91812 5.39494
Si 9.0782 -8.61675 -4.30315
Si 2.52305 -4.85145 1.84022
Si 0.602726 -2.36036 6.35068
Si -1.52654 1.22152 -3.39541
Si -0.221322 5.13907 4.93431
Si 7.77678 -6.66826 0.0495824
Si -1.51495 10.2885 7.98746
Si 5.78676 -3.29985 4.9659
Si 8.38084 -6.60755 7.80759
Si -0.11517 9.90258 3.9691
Si -4.882 8.49267 3.2322
Si 5.63451 -5.96426 -4.40234
Si -8.61111 9.3776 -3.06331
Si 1.3616 0.268387 4.97061
Si 6.45735 2.35802 -3.03935
Si 10.5019 -5.87898 4.43287
Si -1.23436 0.316234 -6.45106
Si -2.47639 -2.42468 2.27194
Si 7.25374 5.67551 6.46457
Si 9.19975 -9.34071 6.76733
Si -1.11471 2.26472 5.07366
Si -4.84565 -8.95022 5.72618
Si -0.568636 7.66341 0.455278
Si -6.17472 -8.41592 2.97403
Si 1.06691 -0.1611 1.84891
Si -4.11004 1.53284 5.1415
Si 7.82767 -8.36469 10.424
Si -5.76667 9.24753 -1.57491
Si -9.54721 4.96835 -4.35072
Si 10.2866 0.614936 1.74998
Si 10.3064 -0.175372 -5.51478
Si -3.65002 0.458771 2.15411
Si 0.517594 8.58487 -7.20528
Si -9.84204 2.80298 5.35339
Si -1.16445 8.9383 -4.42544
Si -6.4702 -0.700193 1.95155
Si 0.124723 -3.82259 3.55955
Si 2.54712 -5.5376 -4.76006
Si -7.58962 8.85261 2.00781
Si 7.38759 5.12667 1.27817
Si -1.55514 6.78086 -8.52812
Si -1.40202 5.11194 1.99616
Si 2.2526 4.09 -5.10737
Si -4.0469 -5.47646 -8.83855
Si -8.95871 -2.40657 0.674476
Si 9.89487 9.36038 -1.10361
Si 0.496596 -2.30232 -6.33362
Si -7.73229 -4.0183 -6.59215
Si 10.1497 -1.75905 7.92358
Si -9.24868 -8.63446 3.43375
Si 5.44649 8.87163 3.96555
Si -4.83348 4.19068 -6.03505
Si 3.93133 0.853891 -7.23977
Si -8.99755 7.89173 7.26999
Si -9.5136 -9.89418 0.807951
Si 1.13392 2.27601 -7.58107
O 8.16274 4.17402 2.29054
O 7.63026 2.42005 4.25433
O 5.34584 2.08294 5.48861
O 0.69209 -9.90736 4.68975
O 3.4756 3.54514 4.15335
O -0.15913 1.32303 -7.14519
O 10.3979 1.80145 6.33328
O -8.27434 10.5023 -4.21564
O 4.92199 -2.99232 -8.4782
O -3.96319 -5.44442 2.5681
O -5.10359 -0.0149052 1.51438
O 6.98429 -10.1361 0.42031
O -7.14065 -5.51869 -6.52612
O -1.9942 -7.1271 2.8868
O 7.91559 1.73251 -2.7959
O -2.94711 -7.27369 -5.44392
O -6.65246 10.3897 -7.14681
O -9.80376 0.132113 2.92913
O 0.550016 -5.90681 -8.4373
O 5.30316 1.40947 -2.35041
O 8.06629 5.40413 -7.52454
O -7.76822 -8.50667 2.79215
O -1.5101 4.02621 -7.15423
O 3.5161 -4.60141 8.2565
O 8.63017 8.31727 6.36504
O 4.61293 1.10281 0.254579
O 0.349907 3.12228 -8.75343
O 10.3825 -5.5375 10.3272
O 3.44654 5.96387 5.44162
O -7.70588 -10.2211 6.82
O 1.11833 6.84242 -2.13527
O -4.36293 -8.56624 -0.871984
O 7.46304 -5.12638 0.512914
O 0.0439712 -7.75595 10.3468
O -3.5648 9.3581 2.87042
O -5.41399 -0.110743 -2.01825
O -0.611505 6.22178 1.16818
O 7.27504 -6.28087 6.75032
O -8.51681 -3.85438 0.180904
O 9.10537 -7.59636 -3.12566
O -5.02654 -3.96769 -3.57948
O -7.10868 7.57862 1.06542
O 2.46944 -6.70568 7.82413
O -3.41467 -8.27679 5.72616
O 8.94055 -0.354682 5.55997
O 9.26218 -6.71785 -0.547519
O 0.870592 8.37852 0.559661
O 5.44998 -8.47617 -7.3262
O -2.07158 -2.94299 9.37218
O 8.9273 -5.64265 4.86195
O 0.942712 9.44103 2.83539
O 4.18347 -6.70136 9.82049
O -9.34391 -1.43764 7.38115
O 4.19406 7.66149 -5.56977
O 9.98464 5.53403 -4.14176
O -7.66481 -1.07299 -3.26723
O -8.80463 1.80476 4.53897
O -7.71819 -6.36122 -0.165098
O -1.57139 8.68462 1.2046
O -1.46256 2.8004 -3.63259
O 9.49749 -2.4946 4.15064
O -1.03885 -7.53687 -7.38486
O 2.165 -4.76199 -3.41097
O -3.4936 -6.34886 -9.99778
O 3.08852 10.0473 1.51197
O 7.32532 -7.77311 1.13239
O 3.47932 5.79195 2.83262
O -5.51683 -6.05011 -8.40037
O 0.791193 -10.0754 0.720826
O -1.02887 -2.97216 2.71185
O -5.14382 9.20891 -5.36169
O 9.92209 -5.97653 -7.0336
O -9.27904 -4.67621 8.17267
O -1.04871 5.37466 -9.11637
O -6.69713 -3.23147 -7.58023
O -9.30393 -4.1515 -6.95931
O -4.78603 -5.99401 -1.71076
O 1.94247 -9.42791 -3.66348
O -9.58697 -5.40511 5.71519
O -8.69374 8.0971 -4.01521
O 1.32399 5.00622 4.46456
O -4.64921 7.09911 2.44085
O 10.1426 -5.32118 -2.56299
O -5.597 3.16006 -5.11917
O 5.80791 6.32199 -1.57177
O -4.05901 -9.63695 -4.82157
O 9.29509 7.51915 -8.18967
O -8.55009 -9.79845 -8.84611
O 1.65881 -3.33808 -1.07335
O 6.26586 3.86764 -2.48531
O -3.46398 -8.97189 -10.1693
O 9.26228 -7.75005 7.05027
O -6.63305 1.14175 -3.83339
O -5.08868 4.73867 3.22885
O -4.61786 -10.4572 6.36797
O -5.2641 -7.44017 -6.24233
O 9.69854 7.90745 3.98013
O -10.1127 1.15497 -6.1554
O -0.87946 8.91888 7.38075
O 3.72039 -1.72691 -4.08048
O 1.6396 -4.10368 3.00118
O -5.28655 0.724139 -6.10149
O -0.799577 -10.1308 9.27423
O -4.23098 -1.55405 -3.85122
O 3.96983 -9.14769 10.5109
O -10.4903 1.37706 -1.96853
O 6.11442 -2.3346 -3.08315
O -0.651679 -5.21822 3.81726
O 4.44053 -1.05798 1.63666
O 8.34705 9.71721 -1.44641
O -6.84212 4.91899 5.02377
O -8.09788 8.79561 8.28377
O -2.72233 0.252581 -7.02953
O -5.57177 -9.00876 4.28722
O 1.44586 -10.0611 10.5566
O -0.666184 8.74921 4.87607
O 6.18091 -9.52198 -1.89581
O -9.71843 1.05622 0.515111
O 9.19481 -7.84669 11.1112
O 9.50101 0.129252 -4.12638
O -0.358959 7.82708 -8.30244
O 8.12377 5.82573 -2.3891
O -5.76441 -1.98678 2.68257
O -0.307929 -5.66154 -1.10103
O 1.17255 -0.825487 -1.41311
O 4.75487 -0.315692 -7.9655
O -5.78538 10.009 8.48922
O -0.852568 -2.37703 7.09756
O 6.59383 -4.74003 -3.95402
O -0.789794 5.13657 -2.45009
O -4.69239 8.05564 7.26406
O -0.483931 8.76962 -5.84596
O 6.0948 2.58013 -4.62662
O -4.48726 9.3033 -10.0532
O -6.267 9.2328 2.81528
O -3.00558 -5.20394 9.584
O 9.95772 3.3263 4.35596
O -4.80136 9.63699 -2.78924
O -9.18118 -9.5662 -6.51159
O -2.43728 -6.90278 -1.92544
O -3.04435 9.81605 8.23822
O -0.533557 -1.12847 -6.61078
O -2.65603 7.4704 5.99178
O -1.06674 -7.40355 5.34193
O 9.26449 -2.44244 6.82702
O -4.36672 -3.93551 -8.61382
O -4.59349 -3.13754 -6.1107
O 9.33838 -1.01316 -6.45672
O 8.36485 8.71081 8.9053
O 3.88853 -3.35465 -2.17365
O -4.86496 2.92539 5.14064
O 3.48884 9.67611 9.40448
O -7.67172 1.90623 -6.00907
O -8.93461 3.11962 -0.90815
O 4.03148 7.88129 7.59077
O -5.73682 -4.23191 3.85955
O 5.26075 -5.78301 -8.09339
O -5.9049 -6.84959 3.06704
O 1.84024 7.88923 -6.62628
O 1.11651 -5.31424 1.10153
O -9.53932 -7.2705 -1.84594
O -4.87102 -5.96402 7.84808
O -8.82308 5.98523 -5.40783
O 0.355002 -3.1781 4.98449
O -2.38695 -4.27014 -1.49763
O -0.194286 0.859374 1.4992
O 2.46542 5.66792 -5.39235
O -7.73094 5.74272 -0.645334
O -2.05618 6.38262 -6.98055
O 4.22679 -10.3709 7.11071
O -9.1261 4.14991 5.89629
O -7.62929 -1.44736 1.08633
O 8.17616 6.25913 7.61536
O -2.76352 -4.31152 7.31631
O -5.6551 5.20637 -6.99957
O -5.03297 8.45693 -7.76306
O 8.75594 -8.11782 -5.86318
O 1.80015 0.066059 -3.83449
O 9.47129 1.92112 2.29645
O -0.226276 -7.58226 0.401175
O -0.392761 6.4268 5.88334
O 1.88801 -3.21582 6.82602
O -2.4547 3.152 -9.20715
O 3.39515 -6.2196 1.40096
O -0.216052 0.94399 -2.42694
O -5.8795 -9.63349 -9.38474
O 7.26146 4.585 -0.212102
O -6.47979 -4.25285 -1.27527
O -4.03248 0.9334 3.64112
O -4.50064 5.58588 5.66353
O -7.70405 -3.1388 -5.18129
O 7.63872 6.03278 -5.02425
O 1.55166 9.41786 -2.18524
O -10.3075 5.38918 -8.40867
O 2.24507 7.88994 -4.10548
O 5.83144 4.63045 -6.28694
O 3.60195 7.78348 -1.91858
O -5.75286 -8.04668 6.68134
O -10.2991 6.71601 1.89318
O -6.36873 -4.85127 1.40542
O 8.62603 -3.60553 2.14552
O 10.3209 10.4138 -0.029699
O -4.89177 8.01191 4.78897
O 0.259163 -9.26295 -1.63437
O -3.478 -6.61639 0.439515
O 6.13935 -9.41083 5.75451
O 8.67798 7.99398 -3.78098
O -10.4471 7.53121 7.85365
O 4.68467 8.0826 5.11414
O 6.93219 -7.09308 -1.23775
O 6.57666 8.89168 -4.86349
O 1.10996 -1.53997 0.991525
O 3.13691 -5.34969 5.92393
O -7.19939 0.197162 3.0406
O 6.20506 -2.99781 1.30408
O -1.08443 7.3148 -0.976687
O 3.26596 -9.76172 -7.94652
O 8.78326 9.13259 -6.09606
O -9.52646 -1.16331 -5.12051
O -5.1223 -2.04296 5.22321
O -5.72176 7.6915 -1.05773
O 7.04513 -9.5119 3.03945
O -1.25862 -7.47975 -9.93035
O -2.83574 0.510356 -2.75345
O -9.31935 -7.82516 10.3522
O 3.74522 3.56552 -5.01768
O -0.621873 -5.06294 10.4283
O 4.66766 -3.3789 6.2061
O 10.2768 9.99708 -8.02713
O 5.89927 8.9156 -1.08751
O 7.8604 6.38784 5.14108
O 7.07891 -2.36061 5.20488
O 2.90173 -4.57385 -8.39473
O -9.16741 3.23526 -7.61354
O 2.42063 -7.15116 -4.66347
O -7.11768 -7.36882 8.76133
O 1.85718 -1.55243 -5.94477
O 4.2948 -7.71718 6.27993
O 5.79439 6.28283 6.6706
O -6.88235 -5.89081 -3.19462
O -0.740811 3.72435 5.57194
O 7.69064 1.51309 6.66749
O -5.37451 5.576 0.639023
O 5.145 9.803 -6.81917
O 4.98519 -9.08604 1.78613
O -7.54189 4.95938 -8.72803
O 9.39046 -0.546981 1.08574
O -9.21218 9.02914 6.09044
O -2.94304 -2.86884 0.775531
O 9.95582 7.87648 -0.401609
O 2.51404 1.3913 -7.81455
O 5.22899 7.80723 2.79388
O -0.315531 10.1609 -3.66288
O -8.3304 -0.768098 5.11319
O -7.2448 -5.74462 6.77985
O -8.10362 -3.29311 6.18352
O -6.55337 -1.27282 7.00593
O 2.08521 -7.97231 -0.0716463
O 7.71144 -7.14214 -7.88596
O 10.1963 -2.91215 9.08952
O -0.921761 5.00918 -4.94419
O 4.59899 10.199 3.64629
O -8.35784 6.58093 6.64604
O -7.96196 0.833602 -1.56463
O -3.5518 -2.81421 3.37392
O -8.73892 -8.80764 -0.0580439
O 6.34245 -7.92396 10.8747
O 7.46816 -2.59346 -5.34014
O 3.58302 0.28277 -5.68216
O -2.98549 -5.96195 -7.66232
O 1.01591 -8.47899 -8.81614
O 4.55853 -7.61893 -0.85726
O 8.16281 -10.1066 7.741
O 0.548944 -7.55474 3.40429
O 0.218725 1.37053 5.17801
O 9.47248 -0.237199 7.93703
O -3.60554 -1.82818 7.34031
O -2.7357 -0.83089 2.18546
O -4.79413 -1.22778 -7.78742
O -10.3755 -4.82816 3.27735
O 5.10942 -2.80122 3.60305
O -0.926713 3.65056 1.50619
O -3.2372 -1.74865 -1.63987
O 8.39615 -10.1299 -4.15005
O 5.94358 5.53104 1.8748
O -8.46537 9.93476 1.14967
O -10.3356 -9.8669 6.85374
O -5.22073 6.53555 -9.24557
O -10.3658 -8.98013 -4.44003
O -7.12625 -8.00598 -7.74381
O 7.64382 -9.90129 10.0353
O -7.21832 -8.14323 -2.1302
O -1.28896 0.54992 -4.87273
O 1.637 -8.9817 -6.27291
O 4.32005 -0.769443 -1.69953
O -2.72799 1.50597 1.43887
O -5.07928 3.94143 -9.31374
O 0.665192 -3.44089 -7.50329
O 1.85396 -5.1071 -6.16549
O 3.61443 -3.64694 1.64262
O 4.17697 -5.39097 -4.7714
O 8.44432 6.28507 0.964771
O 3.86101 -9.24338 -5.50352
O 5.98364 9.5036 8.48129
O -7.86652 -9.74912 9.34004
O -9.57122 3.51625 -5.03048
O -2.54061 1.84523 5.60701
O -0.168029 -3.12275 -5.06336
O -5.29497 -7.68744 -3.81773
O 1.1273 -0.875217 6.02982
O -9.92408 8.10141 -6.38469
O -9.20984 6.23644 4.31106
O -10.061 -9.24931 2.17952
O 9.1119 -3.46031 -7.08137
O 4.82783 2.13607 -6.84028
O -8.66722 8.32276 3.07823
O -2.82926 7.42365 -9.14023
O 3.01796 -5.64317 -1.06075
O -7.35401 9.31579 -2.04391
O 2.68226 -9.10268 3.263
O 4.47242 1.31021 3.05785
O 8.36552 -2.53182 -0.0232493
O 9.22909 -5.27074 8.17771
O -0.813394 -2.43274 -0.73487
O -3.54208 4.88067 -5.42166
O -9.88937 -2.61995 1.98093
O -3.20668 -10.1 1.02034
O -9.99078 -7.31375 3.91667
O -2.73422 9.22465 -4.32208
O 1.81152 -5.75139 10.1376
O -9.57345 -3.02724 -3.27765
O 2.84558 1.03321 5.02295
O 10.1513 -8.38105 -8.08162
O 7.07217 4.07994 6.23255
O 2.49664 0.57498 1.61003
O 1.56883 3.31961 -6.39936
O -2.64208 -3.51054 -4.54902
O -1.30657 -5.38584 -5.91221
O 8.94907 -0.480576 -1.56704
O 6.259 7.21835 -6.88422
O 7.05149 -1.67318 -7.70324
O 7.01076 8.73376 4.37495
O -9.98771 9.56017 -2.27209
O -1.45979 -5.49177 1.20517
O 5.3978 -8.5843 8.45921
O -2.38114 -6.88071 7.58525
O 2.03858 -7.78823 5.41911
O 5.58399 -7.20266 -3.37521
O 10.1561 -4.33347 -4.95278
O -4.46784 1.33546 -8.57085
O -0.982582 -5.16717 -3.46425
O 6.23702 -6.43978 -5.85979
O -7.82098 -8.02218 -4.61126
O 7.85704 -7.36862 9.12617
O 0.863869 10.0513 -7.69249
O 7.14481 -7.43609 4.47196
O -5.32582 10.1208 -0.300645
O -10.0827 -1.84222 -0.377766
O -7.29439 8.08653 -6.29048
O 1.06888 3.78973 -3.97317
O -4.74271 0.362895 6.11978
O 2.67303 1.19093 -1.65199
O -1.37342 2.19848 3.45922
O 1.09153 -0.266939 3.46477
O 4.5402 7.1273 0.488493
O -2.93815 5.24153 1.88449
O 8.67834 -3.27813 -3.20828
O 6.41481 -4.76116 4.78504
O -1.59841 -9.43653 7.06024
O -1.0774 5.40033 3.61338
O -4.15999 3.32274 -7.19385
O -5.52893 -9.00526 1.56395
O -0.895535 7.60161 -3.53764
O 8.61715 -9.47066 5.28508
O -1.27901 10.4884 3.02813
O -9.10909 -9.68299 4.63492
O -9.0181 4.90024 -2.77699
O -10.3038 5.39475 -0.415015
