588
Atoms. Timestep: 1790001
Si 5.13088 -5.291 8.14118
O 5.7822 -4.00458 9.0271
H 5.91851 -4.17952 9.95085
Si -2.0167 -3.89868 9.12211
O -2.22316 -3.86451 10.8784
H -1.49419 -3.5669 11.4099
Si 4.01751 -2.27951 -11.5402
O 3.53501 -3.33167 -12.7911
H 3.24283 -2.93097 -13.6014
Si -5.90115 2.86287 9.81533
O -5.65732 2.77017 11.4989
H -5.46028 3.61982 11.8754
Si 5.55735 -8.15181 9.46208
O 5.35487 -8.11831 11.1328
H 5.38551 -7.28683 11.5912
Si -9.07807 2.46719 9.68714
O -9.24484 2.82401 11.346
H -8.47347 3.17384 11.7762
Si 6.80104 -3.07082 -10.8681
O 7.81611 -3.74808 -12.0672
H 8.0363 -4.66609 -11.9611
Si -4.81381 -2.72482 8.11846
O -5.81789 -3.1914 9.45564
H -5.29226 -3.51077 10.1797
Si -5.20293 -9.47781 -4.53248
Si -3.21956 5.7242 -2.77336
Si 2.68754 0.103299 -2.33934
Si -0.7466 -0.453383 -6.68547
Si 0.830978 1.58665 -8.73
Si 9.31395 -5.471 2.78637
Si -5.26704 0.394355 7.86548
Si -9.46075 2.69576 -7.26296
Si 6.83168 -8.89989 -3.79684
Si 4.05963 1.02338 5.63535
Si 1.36951 -3.62527 -4.75206
Si -10.2365 5.63276 2.97359
Si -0.424777 10.1341 0.863004
Si 0.534794 -3.32393 7.67525
Si 8.0657 2.44693 -2.08935
Si -7.03534 3.30521 -5.74922
Si 6.80693 -2.90211 -6.32447
Si 2.7121 0.250512 -10.4689
Si 4.25287 -3.08798 1.45912
Si -5.51859 -0.458729 0.592523
Si 3.53609 10.0034 -1.907
Si 7.44908 1.48099 -4.95356
Si 2.81095 1.42238 2.86456
Si 8.5426 -1.91155 -8.54254
Si 8.09322 -6.13464 -2.8458
Si -8.17249 -8.74116 2.7507
Si -3.049 3.66324 1.29036
Si -7.43001 6.02401 -1.71997
Si 6.6138 -4.09083 5.82826
Si -6.75269 9.83148 4.13416
Si -5.00259 5.86082 -5.40859
Si -8.13308 -2.7656 -8.50743
Si 5.03551 -8.60913 4.2543
Si -5.80312 7.05577 2.804
Si -0.366229 -3.18399 4.66004
Si -7.31466 7.90781 0.468717
Si -3.47609 -6.506 1.94156
Si 8.76043 9.98646 0.906968
Si 1.09655 9.69741 -7.14839
Si 7.37278 -0.0234078 -0.297966
Si -2.78138 1.69241 -5.69306
Si 2.69091 -3.24883 4.1059
Si 8.97705 -4.77381 -5.35122
Si 5.02242 3.37216 2.51904
Si -3.1401 2.65989 -2.604
Si -2.12399 -3.06136 -7.89343
Si 9.63793 -8.61112 2.85828
Si -9.95167 2.79345 -1.74512
Si -9.07567 4.91003 -3.91653
Si -1.9957 -0.270971 -1.88598
Si 10.3208 4.66438 7.77003
Si -4.8974 -0.773808 -2.28697
Si -5.78631 -8.55186 -1.51753
Si 4.41643 4.75194 -7.56029
Si 7.45507 1.27921 2.45123
Si 10.4278 -4.47421 -7.82179
Si 1.20454 0.139194 0.51415
Si -1.24293 7.95086 4.57927
Si 3.2847 -5.69469 -4.30541
Si 2.16845 -5.95505 7.46198
Si -8.82139 -4.58999 2.92733
Si 0.600292 3.30194 3.22084
Si 7.89533 -9.2245 5.45333
Si 6.47626 -10.0928 -0.954152
Si -7.58082 -1.89753 3.82305
Si 9.65274 -4.59544 5.85275
Si -8.54445 5.35438 5.43973
Si -0.953831 3.62167 -7.43524
Si -0.602301 6.45164 -4.09405
Si -5.06651 -3.57422 -8.28013
Si 3.86216 2.17737 -8.71472
Si 1.79807 4.32407 -5.85546
Si -7.2795 -7.25104 -5.6061
Si -0.583542 -7.38344 -5.5517
Si 7.98102 3.0487 6.442
Si -1.01053 -1.57448 0.867805
Si 10.1674 5.41042 -6.43626
Si 3.93847 -1.98405 -5.87635
Si 8.50877 -1.09534 4.30276
Si -2.15669 6.26612 -6.87944
Si -10.3809 -6.13457 8.24349
Si -4.17516 -9.69887 5.12451
Si -10.3929 -6.86581 -1.66808
Si 3.22757 10.0598 5.57731
Si 1.09093 6.27055 3.34918
Si -1.73111 -5.92937 4.34934
Si 7.01102 -3.62641 2.91823
Si -9.44995 -0.0540235 -2.30982
Si -3.92501 8.39466 -1.89175
Si 2.77781 7.20573 -6.7032
Si 8.76177 -9.63942 -6.06722
Si -2.62458 -5.00202 -5.49069
Si -6.03983 -5.04137 1.52967
Si 5.64292 -1.3213 6.9962
Si 2.19783 -8.60247 -6.67135
Si 2.6781 -9.0738 8.18352
Si -9.58926 9.37183 -0.601876
Si -1.43868 -4.59066 0.34662
Si 7.60847 8.63965 6.09714
Si -3.08828 -8.96804 -6.71752
Si 5.38332 -4.66176 -2.28116
Si 7.15084 4.52408 -5.94816
Si 2.85744 -1.44951 6.78084
Si -0.118817 2.96989 0.319651
Si 9.90647 -1.95947 -0.384426
Si -0.20063 -9.18776 7.71842
Si 9.60578 2.78902 3.67814
Si -9.82018 -0.174357 8.17525
Si 10.4979 0.6183 -5.32334
Si 3.6804 -5.91017 0.133325
Si 4.82167 -8.58179 1.17783
Si 0.332342 -10.38 4.7833
Si 8.03919 5.55372 -1.27497
Si -9.35467 -3.24936 7.5333
Si 8.50015 -8.38494 8.35154
Si -7.47561 -4.55094 -3.88334
Si -6.71218 2.8585 4.59838
Si -9.54052 9.1597 5.31587
Si -5.64414 0.5466 -5.01846
Si -9.35257 0.854495 2.56167
Si -5.79702 6.28474 5.7628
Si 5.111 4.11176 5.57917
Si 7.29323 7.07407 -3.98165
Si 2.9303 -6.32494 4.42011
Si 9.27809 8.24828 3.46734
Si -6.07499 8.60375 -4.28639
Si -2.82901 6.52299 2.1982
Si -3.17198 7.37958 6.99561
Si 2.88404 -2.27556 -8.72583
Si -7.73009 -6.60457 4.96113
Si -2.92799 10.2287 7.75941
Si 0.666919 -6.85835 0.0390064
Si -4.25993 4.77136 8.03163
Si -0.183666 9.27295 -4.36722
Si -7.23196 -2.00787 -1.23427
Si -7.98018 -8.1012 7.73295
Si -5.05254 10.066 0.447417
Si 6.04636 -5.18457 -8.55803
Si 4.74532 0.861469 -6.01593
Si 0.605578 5.06817 -1.80443
Si 2.66293 10.1802 1.05988
Si -10.1444 -10.4268 7.87602
Si -2.6118 -4.86669 -2.41498
Si 4.9667 -1.68707 -1.33197
Si 9.68688 8.35385 -5.77729
Si -5.49343 3.59939 -0.863955
Si 3.22117 -5.99429 -7.51734
Si 8.43435 -6.84813 -7.57878
Si -5.52509 -5.35407 -1.43294
Si 0.268116 -1.21585 -3.86434
Si -10.0615 5.16098 -0.0429987
Si -4.78886 -2.34017 2.64748
Si 4.82125 7.37483 5.53024
Si 3.85454 7.56205 2.54628
Si 0.626486 -4.12222 -7.8046
Si -9.95173 -1.64003 2.4676
Si -7.83215 0.30116 6.01451
Si -4.84027 -6.45712 -7.15502
Si -4.78587 -8.34182 7.66491
Si 3.35855 2.69244 -3.86936
Si -9.14986 9.43452 -3.64185
Si -2.94267 -9.49539 2.26487
Si -9.77841 -8.56981 -4.33139
Si -0.473316 6.92967 0.596515
Si 10.2092 7.79845 7.68157
Si 0.559287 -7.79806 2.99551
Si -1.58993 10.4595 -2.02869
Si 3.67009 -8.65488 -3.88375
Si -6.65382 -4.06172 5.99155
Si -6.63984 -2.36855 -5.91411
Si 4.32576 7.81412 -3.96525
Si -3.96653 2.48236 6.16851
Si -9.95147 -0.205796 -8.19129
Si -2.13884 -6.62039 7.53914
Si -6.73295 2.13734 1.54913
Si -2.44135 1.9844 3.60839
Si 3.77396 5.22383 -2.24582
Si -8.56023 -8.68391 -0.244254
Si -2.25602 -1.02881 3.62383
Si -1.22399 -7.72564 -2.43079
Si 8.30561 -0.0194962 7.30775
Si 5.38358 5.71489 0.452769
Si -9.48776 -4.01963 -1.75705
Si -1.87495 9.31113 -7.02572
O 5.08147 4.02052 3.95968
O 7.49644 10.1786 0.043656
O 2.11761 0.197321 -0.799324
O -3.52616 -2.01741 3.53685
O 4.13311 -9.91047 4.73732
O 0.021733 6.2704 -0.814697
O -9.52452 8.98509 -2.14511
O 2.84242 0.166615 6.3565
O -1.95807 6.56415 -3.24847
O -2.72122 0.442157 3.90464
O 0.881041 4.76784 3.82086
O 7.47875 -1.83162 -7.33427
O -7.91112 -3.72509 6.96306
O 3.38143 -2.60489 2.75511
O -9.04089 5.99812 4.01126
O 2.96422 -9.03814 -5.33284
O -5.33641 0.0746423 -3.54548
O 2.05471 0.579027 1.79636
O 3.48905 -5.78478 -5.91206
O 5.77299 -5.13578 6.67141
O 9.4529 -4.98864 4.30236
O 3.82632 6.26892 -7.67481
O 5.91613 7.85205 -4.0343
O -1.42782 -10.2705 8.10241
O 2.21442 -6.51657 -0.209074
O 2.92255 1.53539 -2.93663
O 9.19876 -9.59507 1.6428
O -2.88964 2.31431 -4.13828
O -9.21141 0.446442 6.78128
O -7.99129 9.43417 5.08993
O -10.3509 -3.39552 6.24633
O -9.93266 7.86105 6.24951
O -9.31735 0.895595 9.30564
O 0.630108 -3.91691 -6.21499
O -8.9389 -4.03004 -3.30073
O 4.61312 5.56277 -0.953873
O -1.91696 -5.36782 8.48683
O 6.9362 5.82992 -0.114357
O 8.91621 0.841888 -5.11106
O 7.66421 10.2706 5.99573
O -4.0602 -4.79088 -1.83348
O -0.939574 -10.4807 -0.611545
O -9.88722 5.48854 1.45226
O -0.794434 9.47842 4.61773
O -9.47076 3.9224 -2.77112
O 8.93945 -9.06712 4.26191
O 7.10412 0.403083 1.19799
O 3.66437 -4.52948 1.05346
O 0.947954 9.71609 -5.49328
O 0.864615 -7.74152 -6.15687
O -4.26736 5.54372 -4.00066
O -7.40802 -8.49918 -1.34488
O -6.36647 -8.35959 -4.90266
O 9.19303 -7.04615 2.78724
O 7.86511 3.99969 -1.78113
O -8.75439 -7.94158 -5.46079
O -2.76064 4.22866 -2.34975
O 5.31978 -0.0193719 6.04812
O 4.20133 -8.89225 8.93608
O 9.927 9.55104 -0.0635456
O 2.92639 -2.4351 5.44813
O 8.19686 -8.32815 6.76791
O -8.99516 -6.94969 8.39349
O 4.20676 -2.02582 0.112095
O -4.33485 7.08026 2.11233
O -9.25334 -10.0082 -3.77863
O -3.66945 5.94174 -6.35548
O 6.24774 0.557345 -5.48904
O -9.35842 -1.75606 8.08001
O -1.49978 -1.64598 -7.51198
O -10.1618 9.09636 8.45411
O -5.19026 -3.82743 2.23927
O -9.96852 -4.47923 8.44004
O -2.9758 2.56607 4.96006
O 9.37367 -3.24662 -8.21918
O -7.40729 -10.115 3.1226
O 1.25239 0.882189 -10.1481
O -5.31836 -7.04309 -1.46018
O 8.07214 -4.60436 2.28336
O -9.91207 0.0206376 -3.91083
O 3.24376 -9.62808 -2.64581
O 6.87904 -5.2773 -2.35387
O -5.35134 -3.43841 6.78334
O -0.196807 -3.40537 6.27772
O -7.39782 1.40827 4.86917
O -10.0039 2.02912 -5.92151
O 1.78089 5.98721 -5.9715
O 3.55251 -5.23375 7.89476
O 7.71758 -2.32042 3.62111
O 0.532532 -1.22997 0.77418
O -0.160153 -7.49388 -1.18523
O -6.00249 -4.8124 -0.0411966
O 9.17062 -5.28416 -3.81772
O -8.81388 8.39703 0.45036
O 3.99452 -0.837516 -2.29792
O 6.1241 -0.683671 -1.0124
O -3.24722 -9.34984 3.81792
O -6.25037 4.83701 -1.51347
O -4.66884 2.74748 -2.04906
O 3.24531 -4.81241 4.1638
O -6.35504 -6.86956 -6.88547
O 3.20603 -7.11873 -3.59873
O -2.87905 -10.4342 -7.25452
O -0.944979 -0.590923 -3.0415
O -1.66995 -8.28798 -6.46713
O -5.39186 1.53789 9.05045
O -8.26713 1.69242 1.72938
O 1.67763 -9.8594 -7.54246
O 4.51358 -5.44349 -1.13231
O 4.2017 -1.55131 7.60631
O -8.67536 -5.54901 4.26411
O 5.56755 -2.36289 -11.4907
O -6.76786 -1.42866 0.208236
O 1.40744 -2.84599 -8.37559
O 2.08926 3.49212 -4.55231
O 1.88264 -4.9461 -4.1153
O -10.0204 3.48617 8.76012
O 8.58488 4.94946 -6.56892
O -2.22573 7.7747 -7.30885
O -10.0678 -7.59629 -3.07664
O 5.34886 -3.09438 -1.95645
O 0.15569 -0.953527 -5.42925
O 5.26111 -8.72919 -4.05532
O -4.91536 -5.1942 -8.19727
O 4.56229 -5.07441 -3.59499
O -6.52044 2.93492 2.95958
O -2.13999 2.78667 -6.70352
O -0.354371 2.6927 -8.62091
O -1.93482 -6.27181 5.93385
O 7.95188 0.187377 3.55608
O -10.2968 -0.0917741 1.72878
O 2.59224 6.70796 3.14232
O -5.58348 10.0016 -4.93194
O -2.95484 -8.0049 1.6351
O 2.8093 -2.87042 -5.08502
O -7.70103 4.03227 5.02009
O -5.30825 -9.29745 -2.88575
O -5.85003 4.51575 -5.84208
O 4.71504 6.90139 1.34706
O -8.80595 -1.29694 -8.78124
O -2.693 -4.44077 -3.92973
O 10.1947 6.24447 8.21256
O -1.10465 -1.77848 4.48757
O -8.04093 5.96138 -3.22626
O 9.62049 -0.230807 8.10682
O 7.96544 -3.52025 -5.37926
O -10.1453 8.73508 -4.7226
O 9.37478 -7.04909 8.78957
O -1.64449 3.42675 0.56787
O -2.03049 6.57579 0.834901
O -1.31053 -3.16103 1.01567
O -4.28954 3.82846 0.268339
O -5.05991 8.48532 -3.01621
O -9.94217 -7.89242 -0.470038
O -1.50049 9.2641 -5.39396
O 9.92192 -9.02787 -5.13364
O 10.3468 -4.48864 -6.16636
O -5.42878 2.90656 5.49359
O 3.86176 -0.441704 -5.87412
O 10.0928 7.07769 -6.70672
O 7.80629 1.36098 -0.940583
O -4.83232 -1.1145 8.11172
O -7.94871 -2.55376 -6.86521
O 2.09798 -6.15495 5.84713
O -3.61553 3.48321 7.39804
O -6.55538 1.86468 -5.16732
O 8.44864 7.75411 -4.83662
O 5.82228 -3.15097 1.90969
O 2.88116 -0.715719 -9.13012
O 5.79994 4.75533 -6.80726
O -8.88337 -10.2236 -0.406576
O 7.50939 -9.67469 -5.04038
O 3.75236 8.50023 5.9566
O -4.24626 1.12307 6.8626
O 0.200386 7.83373 -3.97177
O -0.664167 -3.15128 8.75724
O 0.148004 5.33228 -3.33468
O -2.62728 9.27724 -2.37138
O 5.34762 4.45986 1.42476
O -0.422679 9.58331 -7.64388
O 7.33185 1.9404 -3.38593
O 5.9882 -2.6451 6.17309
O 4.35474 2.63644 5.89847
O 3.56579 -9.51892 1.16483
O -5.54173 10.4976 4.84722
O 8.62576 9.00261 2.15537
O -4.62589 7.26562 6.16888
O -6.84983 6.86111 1.55909
O -5.04692 -6.32704 1.81769
O 0.190392 0.428287 -7.70921
O 3.19298 -0.832184 -11.5726
O -8.1166 3.98503 -4.85037
O 3.29232 4.16251 -6.56338
O -6.57314 -5.64668 5.58851
O 0.397094 -2.84154 -3.83801
O -7.01646 -3.33241 4.6608
O -1.57242 5.05537 -7.79883
O -0.538389 -7.80526 -3.98873
O -5.36046 -2.87574 -6.83749
O 10.0093 -1.45184 3.72445
O -8.59409 -0.700386 2.98796
O 6.57716 3.83033 6.25651
O -1.98673 7.48435 5.92722
O 5.13292 10.1142 -1.53897
O -6.5369 -5.09047 -2.68422
O -5.37778 5.23853 6.89222
O 3.71391 7.75753 -5.46828
O -3.87536 6.7754 -1.75625
O 1.63911 -2.17231 7.55845
O 4.17017 -7.3135 4.66182
O -5.79092 7.31098 -5.20282
O -7.51692 -4.94465 2.10656
O 0.142059 -9.63083 6.19597
O 6.40378 -4.05905 -7.34778
O 0.507228 -7.72776 1.40478
O -3.17181 2.47186 2.29545
O -7.59051 8.90976 -3.81178
O -5.70471 6.07364 4.117
O 6.21939 7.93522 6.18451
O -1.59822 -10.2972 1.84002
O -3.35913 -3.34275 8.49805
O 4.03682 6.34698 -3.37019
O 4.57053 -5.52696 -8.31856
O 5.44875 -2.45528 -5.57382
O -4.19405 9.13402 -0.54953
O 3.54318 8.8567 -3.01539
O 7.66429 -2.11493 -9.88969
O 10.2221 4.21033 3.43913
O 6.43437 -4.32036 4.24399
O 9.66264 -0.764995 -8.77717
O 5.49536 -6.66471 8.82478
O -6.51696 2.80803 0.0864746
O -10.1685 -5.04088 2.19717
O -10.3719 -0.867888 -1.33953
O -1.22626 6.14241 -5.55091
O -3.09492 -6.13163 3.50559
O 2.9362 -10.0147 6.8864
O -3.32214 -1.03845 -2.41814
O 8.54984 -8.44524 -7.164
O 1.79688 -5.2733 -7.99056
O 4.61456 1.43166 -7.53967
O 1.92419 -7.04628 3.44834
O 3.63943 2.64586 2.15362
O -2.08129 -6.37208 -2.49983
O 6.96344 -0.828829 7.78181
O -6.72679 -3.34759 -4.68001
O 7.85397 6.63255 -2.47565
O 0.171348 7.22852 4.30878
O -4.01679 -9.63893 8.31006
O -4.036 -7.82509 -7.53543
O -1.53103 -0.895252 -0.481243
O -1.7934 0.457026 -5.89706
O 8.42974 -1.27732 -0.255522
O -4.63683 -8.56531 6.09548
O 9.66559 -5.98075 -8.13264
O -3.86868 -9.09683 -5.30308
O -5.74263 -2.06696 -1.92996
O -5.1226 4.15572 9.29848
O -10.1933 10.3202 6.31133
O 1.08877 10.3297 1.31005
O -7.50761 -5.83512 -4.89687
O -2.05923 -9.08412 -2.29847
O -8.19054 -3.25937 -1.08026
O -7.45667 2.91035 9.4921
O -5.02396 0.107028 -0.906098
O -8.83097 -9.48429 7.9896
O -10.3535 8.98382 3.93598
O 10.2185 -5.85058 6.74389
O -0.897674 2.59044 3.41454
O 4.41417 3.70821 -8.72124
O 8.16152 -4.20074 6.26304
O 1.11748 -4.88289 7.94833
O -1.37263 -6.02236 -5.59065
O 2.15048 5.21881 -1.8653
O 3.31484 9.01021 2.0486
O 9.62763 -9.57752 8.3757
O -7.43442 6.38803 5.98217
O 0.693433 3.5251 1.63376
O -4.27402 1.03308 -5.76392
O -9.78413 -8.7809 3.01522
O 1.12078 -3.29364 3.97285
O -7.48098 -7.66847 3.79375
O -10.4869 -2.29121 1.0753
O 7.05176 -8.63514 9.09167
O -5.33588 -9.5414 -0.311008
O -9.73745 4.86833 6.44778
O 7.45374 -7.45733 -3.58263
O 7.36883 2.96141 -5.63863
O -1.55918 -0.86965 2.14892
O 4.73796 5.70597 5.94372
O 1.82753 9.88987 4.84153
O -4.44448 -1.46422 1.28438
O -1.69595 -4.26997 -1.25025
O -3.20185 8.64475 7.96305
O 0.402425 3.73678 -6.5155
O -10.0412 4.2832 -7.31087
O -10.177 -0.343769 -6.57244
O 0.329398 3.70061 -1.02998
O -9.20966 -4.00672 -8.61515
O 2.3346 -7.52194 7.87352
O -7.96823 -8.36831 1.20673
O 5.34358 -8.5926 2.66697
O 3.85218 1.40254 -10.1572
O 2.26335 2.13384 -8.31452
O -3.95564 -5.91101 -5.90268
O -3.52641 -3.10122 -8.7141
O -6.16614 -1.6785 3.07198
O 0.432322 -9.25263 3.64729
O -6.38127 -0.761833 -5.61793
O -8.72287 5.73475 -0.811482
O -4.06163 -10.3817 1.61746
O -6.28605 8.43035 3.47915
O 0.419773 6.43347 1.83069
O 8.29362 8.24251 4.64839
O 1.68632 2.27532 3.72776
O -2.48551 -3.83648 -6.52992
O -3.64839 -7.19932 7.89909
O -0.399278 8.52567 0.722035
O 2.98996 -7.54946 -7.52212
O -10.0681 3.54758 -0.344445
O -0.619377 -6.91987 3.67753
O 10.2422 -3.26493 -1.25807
O 6.35963 -4.3606 -9.91615
O -0.116018 -5.51015 0.419872
O 6.15711 2.26732 2.67661
O -10.181 1.73602 3.58196
O -2.32934 1.36369 -1.93034
O -7.88048 2.94004 -7.11867
O 8.47062 -0.832457 5.86552
O 5.77475 -8.98195 -0.0502553
O 0.18723 1.41232 0.259682
O -6.38999 9.18591 0.742288
O 8.71647 2.34229 2.42662
O 1.93567 8.34884 -7.40383
O 4.81131 7.53264 3.8829
O 8.6995 8.10236 7.22605
O 4.18473 1.97957 -5.05787
O -6.66074 0.242973 7.11398
O 3.54054 -2.85473 -10.1266
O -8.05902 -0.832526 -2.04984
O 3.74397 -2.47378 -7.43854
O 8.35903 -5.9953 -6.16619
O 8.69705 2.84246 5.00541
O -8.82835 -2.9025 3.00752
O -8.0668 -7.55542 6.18018
O -3.28458 6.06351 7.91616
O 7.14292 -6.39703 -8.40489
O -2.95972 4.92614 2.32808
O 7.06196 -9.52735 -2.29645
O -5.86495 0.813298 1.50419
O 1.13653 -9.48126 8.60105
O 9.57701 5.59894 -0.744452
O 9.64247 2.34858 -2.29909
O -0.405586 10.1879 -3.11865
O 4.41116 -7.04636 0.936558
O 9.09528 -6.56724 -1.68407
O -6.95966 7.35048 -1.02244
O -3.24762 10.4199 6.11841
O -9.59315 -5.52382 -1.34856
O -1.03075 -7.82457 7.78665
O 7.98374 1.56607 7.03095
O -2.06401 7.38465 3.25404
O -6.34539 -8.19845 8.0349
O 3.76831 0.848477 4.02153
O -9.63628 1.41886 -8.32148
O 9.15783 9.82422 -6.275
O -7.81614 -1.11849 5.24438
O 1.64375 -0.711942 -3.21809
O -6.55165 -3.12715 -8.87352
O -0.895064 -4.0654 -8.34975
O -10.2588 5.36531 -4.89911
O 4.13355 3.78793 -2.96363
O 2.78552 9.72341 -0.522846
O 8.98123 3.96051 7.34763
O 7.06627 5.61598 -4.72896
O 6.4895 -8.82293 5.02773
O -2.61813 -5.48534 1.01111
O 9.70527 6.77594 3.03185
O -1.18104 -4.43337 4.1592
O -9.14507 1.44697 -1.81447
