591
Atoms. Timestep: 1790001
Si -9.76438 -10.2992 -8.92571
O -10.2955 -10.1539 -10.5487
H -9.60114 -10.1901 -11.1961
Si 10.1128 8.21502 -7.24016
O 8.53742 7.80273 -7.76331
H 8.41729 6.92836 -8.11482
Si 5.1159 -6.13578 -9.20526
O 5.40513 -5.68124 -10.7608
H 5.9175 -6.2974 -11.271
Si 8.24037 -0.827372 10.2648
O 8.48454 -0.41951 11.8562
H 9.11766 -0.954944 12.3198
Si 7.96487 -6.06156 -8.47066
O 7.71383 -6.87002 -9.93119
H 8.45347 -6.85216 -10.5271
Si -9.33504 5.50627 2.63895
O -8.93664 7.13928 2.80224
H -8.12264 7.3735 3.23241
Si 3.30498 8.20926 9.53972
O 3.40215 8.90734 11.088
H 2.66723 9.43053 11.3857
Si 10.2646 7.32945 5.02097
O -9.27847 6.71658 5.61913
H -9.14214 6.86681 6.54722
Si 9.16055 -3.64703 11.1905
O 9.54363 -2.83845 12.6411
H 10.1534 -3.36416 13.1454
Si 0.525241 6.5426 9.52236
O -0.0824766 6.9904 11.0579
H -0.206659 6.26058 11.6533
Si -5.06287 -9.87062 -3.11164
Si -0.553129 -1.97427 -5.95697
Si 4.5124 -3.77507 -4.42442
Si -5.48208 3.92935 5.20619
Si 5.62869 2.00928 3.39446
Si 3.53118 -10.3405 7.63665
Si -1.49223 -7.15341 0.890925
Si 5.49306 8.51638 -1.11765
Si 4.07572 -0.79856 2.78274
Si -3.01229 -4.78788 -2.84819
Si 2.59988 6.241 1.02117
Si 5.37935 -5.8333 -2.18884
Si -7.16906 -5.50583 -3.6988
Si 2.55094 -4.59172 -8.43173
Si 3.89157 -0.171584 -2.11244
Si 0.864861 0.546146 -7.23737
Si 4.72928 10.4882 -5.65778
Si 8.72326 2.61906 3.35577
Si 9.12287 -3.37137 -7.70025
Si -1.36714 -3.60638 8.0429
Si 6.69568 1.41109 -2.53611
Si -8.51672 2.80633 -6.7496
Si 0.435524 -4.76294 0.579149
Si -7.40126 -6.6239 -8.8573
Si 7.83964 -5.88463 -0.372317
Si -3.37544 4.73457 -7.57985
Si -5.09356 1.03738 3.94441
Si -0.657295 3.04079 -7.04395
Si -10.0868 2.32667 -4.07378
Si -5.81655 -5.23717 -6.52621
Si -1.27052 2.44626 4.87238
Si 5.12738 -6.67823 2.73928
Si -10.1172 -6.35693 0.134641
Si 1.60294 -0.633507 7.09794
Si 8.49127 -1.41655 5.97876
Si -4.1254 -4.68585 7.16448
Si -0.263472 -8.65362 -1.7162
Si 1.42316 3.76484 5.58716
Si -8.03249 -1.4538 -5.67232
Si -2.04222 -10.4395 -3.55552
Si -0.702444 -9.78275 5.79516
Si -1.21736 -8.7861 -9.22825
Si 6.04362 -2.11504 4.57352
Si 4.6859 3.28784 -3.91078
Si -6.73317 -9.72018 -8.56451
Si 5.94763 -5.79382 -6.26911
Si 9.76939 8.89522 -4.22396
Si -3.70308 10.4932 -8.70208
Si -10.2475 -7.37249 -7.75317
Si 5.74874 0.239532 8.66771
Si -9.53598 -9.68003 -3.56972
Si 7.24775 7.91052 1.25477
Si 1.30833 -5.22804 7.96743
Si -0.358983 5.60956 1.72608
Si -2.85204 8.71741 3.33005
Si 9.48783 4.9609 -4.36148
Si -3.90035 3.99268 -4.74189
Si 4.63552 3.76272 0.853041
Si -8.24099 0.695834 3.76854
Si 7.29646 -5.0056 4.29868
Si -5.41649 2.64424 -7.14046
Si 9.15441 10.4458 1.19102
Si 4.40448 -7.72379 -4.2571
Si -4.61046 -7.56912 0.996803
Si -1.6298 5.88436 -0.979224
Si 6.27901 -6.59506 6.78135
Si -6.84739 -4.01129 -10.4062
Si 10.4409 -7.52208 8.0207
Si 6.97361 -5.40269 10.2196
Si 0.0420618 -6.07201 -9.20903
Si 1.6727 5.06012 -7.13511
Si -7.2278 -9.75928 3.74544
Si -9.0712 2.85405 -1.00485
Si -3.91208 1.0636 1.03883
Si 4.30716 -2.18137 0.0860016
Si 8.69481 -4.90519 -4.99627
Si -4.89473 -7.03767 -2.06539
Si -4.44177 -2.16302 -2.2435
Si 2.47256 -7.27915 4.1113
Si 3.2619 1.78179 8.36341
Si -10.1067 6.67579 -2.2879
Si -9.97916 -1.93965 4.25678
Si -7.69512 -7.89986 7.39731
Si 4.62365 7.63858 2.9975
Si 4.12985 -0.993531 -5.08178
Si 6.01506 7.49928 8.10728
Si 0.067521 6.46796 4.65804
Si 3.3358 2.62547 -6.80139
Si -0.446348 -3.06221 -1.85515
Si 5.2723 0.427821 -7.49454
Si 8.15252 6.16898 6.59531
Si 7.74315 -8.04982 9.27536
Si 5.48508 6.14729 5.46268
Si -6.60285 7.36567 -6.047
Si 7.44424 -2.87545 0.100296
Si 8.61783 0.964639 7.8644
Si -4.9883 10.3757 1.74898
Si 0.251331 9.3016 3.59822
Si 8.9344 -2.90284 -2.69185
Si -2.32681 -9.04623 -6.31569
Si 1.32803 -10.2369 -8.43558
Si -5.9836 2.97982 -0.175003
Si 9.63846 -8.30029 5.08533
Si 1.25556 -1.6434 4.15347
Si 9.78626 3.38018 6.33186
Si -8.33515 -4.58247 4.68094
Si -2.9629 -0.60169 -4.55059
Si 0.702005 7.90374 -7.57317
Si 8.46078 -3.24054 8.4004
Si -7.05293 10.4777 -5.48559
Si -2.48267 -1.49242 -0.0337663
Si -9.95073 -4.52148 8.9271
Si 6.54714 5.63139 -3.7636
Si -2.20456 3.43475 1.99977
Si -9.61228 -3.57726 -0.93953
Si -10.1011 1.16577 1.42431
Si 4.36029 -4.78573 8.63552
Si -6.74225 10.0139 -0.697022
Si -9.83346 0.188928 -7.62233
Si 9.89914 -1.86651 1.40011
Si 6.6141 10.4376 8.17654
Si 1.61546 -6.79017 -6.7652
Si 7.1884 4.1593 -0.952888
Si 6.69124 -9.30463 5.44084
Si 8.15777 -0.390998 -7.13568
Si 4.42467 3.31637 5.89619
Si -7.1157 -4.91566 7.65849
Si 1.933 10.3786 -2.38234
Si -6.59026 -6.76537 3.37565
Si -5.20876 -0.363101 -6.86204
Si 2.78252 7.38312 -1.92887
Si -9.38143 -9.45963 -0.46119
Si -10.2059 10.2709 3.94116
Si -4.74288 -2.94772 -8.4592
Si -7.49248 -2.48843 -2.76002
Si -1.75194 6.83003 7.28756
Si 10.0355 5.25813 -0.0915656
Si 10.2479 -5.93045 3.25986
Si -1.31642 -0.614706 8.38344
Si 4.30054 -2.05612 7.19433
Si -9.32921 5.81531 -6.52832
Si -4.22204 5.82349 2.82776
Si -4.6274 5.27747 -2.00189
Si 1.23344 5.76036 -4.15283
Si 0.885727 -4.83823 4.8534
Si -4.17419 -7.14842 5.48863
Si 2.98246 2.49106 -1.34404
Si -6.67856 5.40739 1.21188
Si 0.987738 3.55837 8.76999
Si -2.34574 -3.22646 5.07655
Si -1.80529 -4.04748 -7.9293
Si 1.39101 -3.63752 -4.08962
Si 3.87815 -8.75117 -7.96468
Si -3.20289 9.52729 6.36038
Si -2.62042 -0.153103 5.58387
Si 2.18949 -9.67574 2.34316
Si -1.72572 2.21137 9.50596
Si -3.84588 6.84615 -5.20686
Si -2.56144 7.61853 -7.86076
Si -3.03155 3.90606 7.19366
Si 3.49965 -5.21209 0.316732
Si 1.32321 -6.77247 -3.8271
Si -1.25934 7.52886 -3.48709
Si -1.32011 -7.09931 4.05194
Si -0.930319 -2.76133 2.43044
Si -1.41851 2.23759 -4.17254
Si -8.84522 -2.67053 -8.25664
Si 1.52413 -8.09861 7.11263
Si -5.55543 -9.74394 6.44598
Si 6.63991 -8.5646 0.82303
Si -2.91701 -5.97533 -5.70302
Si 1.75839 9.86141 -5.54687
Si 2.96421 -1.40523 -7.863
Si -7.0765 7.00928 -1.55788
Si -8.5654 3.54859 5.02488
Si 4.07087 -9.8979 -0.302642
Si 8.98655 -0.12152 -4.08744
Si 8.9198 5.67541 2.59816
Si 4.17206 10.373 4.60401
Si -9.89132 -6.80093 -4.66824
Si 0.19614 3.53379 -2.09359
Si 6.58158 8.78129 -3.79095
O -9.19113 4.43067 3.81919
O 10.4327 7.91308 -3.16142
O 7.94587 -2.66855 -1.44701
O -9.69255 3.61947 6.23599
O -6.95865 2.87998 -6.98157
O -4.97433 -1.41686 -8.05494
O 7.94318 6.57656 1.84487
O 2.82671 -5.06994 8.59862
O -2.62636 -9.63189 -9.53564
O 5.88371 -2.50373 0.0961923
O -5.19037 1.64221 0.215518
O 7.23885 -7.19314 0.266293
O -2.06089 3.75099 -7.44474
O 7.10088 5.96053 5.33767
O 1.18569 5.84753 1.50256
O -9.4481 2.59078 -2.53299
O 9.23402 7.2384 6.16291
O -7.48579 2.85948 -0.725534
O 9.8281 -1.9651 5.34175
O -4.57105 3.78959 -7.89709
O 3.82053 2.92531 -5.28448
O 5.9076 2.29403 -3.65414
O 2.31104 6.60204 -3.22811
O 0.337139 2.82076 4.87082
O 5.14429 -7.04569 -5.54938
O -5.76703 -10.0369 -4.52956
O -4.53314 4.68702 -3.49069
O -7.92453 6.38653 -5.93345
O -6.53903 -9.0292 7.54977
O -1.24919 -3.47191 6.3444
O -10.2325 -8.98189 -8.07245
O 9.8041 1.91681 2.36801
O 8.59426 -2.40732 10.054
O -3.60609 -3.92695 5.77654
O 1.01396 5.29321 5.09499
O -1.83424 2.67118 10.9974
O 1.05822 -6.79383 7.85301
O 1.15529 10.0781 2.5032
O 8.87872 -0.0282368 6.68065
O -1.21986 -7.50163 2.45004
O -2.62284 8.15646 7.10031
O 4.53322 1.11095 9.18802
O 1.16541 -3.26259 4.41424
O 7.24577 1.88445 3.24005
O -3.31065 4.69632 2.06614
O -2.81079 -5.28177 -4.33323
O -8.77311 1.01984 2.28552
O -1.41237 -8.68893 -7.56425
O -7.11473 -9.92097 -6.96758
O 5.95612 4.19006 0.0422343
O 10.4219 -9.66602 5.00692
O -2.79413 2.25432 1.09092
O -3.61215 10.3461 -3.13818
O 10.3475 5.36956 1.60937
O 3.23102 -9.92466 3.58552
O 9.27185 -6.74219 -7.96491
O 0.253513 -0.69755 7.91637
O -7.15906 8.58901 -1.26716
O 2.2081 -5.29583 -7.01307
O -6.80675 -8.12142 -8.92748
O 6.85521 -5.60608 -1.66757
O 5.34577 2.57479 4.79338
O 7.86081 -9.60275 0.999592
O -1.84309 -1.63791 -4.97931
O -3.21063 8.91194 -8.59924
O -7.8557 -3.30635 -9.30708
O -2.34657 -0.374476 7.12965
O 8.9621 4.80425 6.66642
O -1.89825 -9.92005 -5.06324
O 7.89006 -4.59209 11.3186
O -1.56299 0.954752 5.19076
O 4.0611 2.54062 7.21084
O 1.4117 6.52212 -7.73035
O 10.3674 -2.31154 2.84627
O -1.20791 6.2756 0.516693
O -0.891444 -8.0853 -0.331415
O -8.73851 -2.95306 4.43554
O 5.36458 -5.14549 9.95509
O 5.68546 -10.068 4.53099
O -8.01809 -7.53717 5.90898
O -4.65419 10.0196 6.85073
O 6.57161 7.82766 -0.206376
O 7.78922 0.583073 -3.2359
O 5.06379 -10.1945 8.03687
O 4.90481 4.83083 6.1445
O 3.21924 -9.84662 -1.69717
O 0.791392 4.45056 -3.34715
O 4.35774 7.50143 -1.69244
O 2.90139 0.905162 -1.55507
O 6.88967 0.346524 -7.71075
O 5.82495 -7.9934 2.09572
O 10.3123 -10.0972 0.0946696
O -8.1995 -10.3147 -9.05648
O 4.55509 -3.27006 8.19775
O -3.02538 6.16667 -8.19257
O 8.80091 -5.31376 3.64379
O 0.717436 -2.8443 -2.9243
O -9.2093 -1.08349 -8.46682
O 10.3229 10.3177 -3.96339
O -5.37197 7.02616 -5.05133
O -4.77243 2.98524 -5.66374
O 0.76536 7.88289 4.26031
O 1.92869 -5.56855 0.544562
O -5.43984 -3.79693 -7.22984
O 4.61885 9.56746 -0.266503
O -5.65731 9.76935 0.460376
O 5.3505 -7.20047 -3.05173
O 9.17394 -3.96133 -6.2025
O 2.90724 -7.22428 -3.83963
O 1.78788 5.24421 -5.55268
O 6.22086 -5.75903 3.39384
O 8.55333 4.17218 2.89181
O 4.70657 -7.67574 -8.85094
O -5.41201 -3.43044 -9.86919
O -6.51574 -9.85657 5.14962
O -0.673991 -5.81666 0.608801
O 0.799515 -9.86115 -1.58103
O -2.579 -1.65746 4.89265
O -8.51035 -2.59661 -1.50057
O 4.02363 -7.12387 3.781
O 5.08509 -5.68803 7.48871
O -2.0015 3.27044 6.09104
O 5.87662 9.57263 -4.98954
O -10.294 9.40212 -8.15055
O 0.13417 -0.630725 -6.34878
O 5.40814 0.481335 -1.92478
O 4.43831 -9.22638 -4.61823
O 2.41768 6.64098 -0.531229
O 5.01809 -4.66328 -3.2165
O 9.31643 2.37223 7.48606
O -7.27962 -3.74324 -11.8097
O 5.26684 4.72858 -4.08706
O -8.27671 -9.96549 -4.60287
O 2.97979 -3.55879 -4.26962
O -10.2989 -5.92728 1.67678
O 5.01955 -2.41833 5.78153
O 2.33113 0.721825 7.54648
O 3.88745 -1.59035 -1.33165
O 10.1841 8.54433 -5.68596
O 2.02648 1.65878 -6.83739
O -3.10575 7.68621 -6.34855
O -9.17554 -0.45569 -6.15239
O -6.39443 -5.15371 -5.0483
O -1.97681 -5.16696 -6.80333
O 0.377254 -3.9021 -0.712504
O 7.23822 -1.11637 5.01115
O -3.54045 5.18175 -5.87859
O 9.55186 0.307854 -7.56365
O -3.73639 9.62392 2.29217
O -0.0680864 -1.57658 3.13838
O -8.16416 5.14252 1.68034
O -9.81351 -7.02075 -6.25667
O 0.127671 -3.7724 1.76748
O 6.87841 5.10311 -2.2321
O 6.35228 -6.03572 -7.94225
O 3.73026 2.77114 -0.00565127
O -3.3377 9.18958 4.78327
O 10.415 -4.22092 10.4094
O -10.3432 -3.31971 -8.16533
O -9.91816 6.95963 -7.49026
O -4.05705 0.450199 5.0707
O 3.09292 -1.32885 -6.26864
O -1.91835 2.96236 3.51949
O 10.4285 8.8163 4.45231
O 8.34863 -2.01263 1.10098
O 9.26247 2.74064 4.87859
O 9.36005 -1.52238 -3.4031
O 0.558472 -6.86632 -7.93465
O 0.438084 4.12977 -7.41311
O 0.0687211 10.2482 4.84692
O -8.42482 -4.32008 8.57999
O 8.41996 -1.94915 -7.68922
O 1.48483 3.07526 -1.25404
O -3.66425 -5.98471 -2.07465
O -9.08298 4.31619 -6.98016
O 2.10991 -7.70432 5.67417
O -4.38302 -5.90724 -6.29773
O -9.24451 -0.481807 4.3039
O 2.70494 -9.58322 -8.83157
O 3.11543 9.4378 8.52505
O 2.16868 8.83993 -1.98037
O -1.99247 -10.4504 6.41058
O 10.2516 0.910554 -4.04147
O 9.88598 -10.4875 2.60588
O -2.83389 -4.37619 8.19046
O -1.07523 6.99394 -1.93721
O -4.05549 -0.541897 -5.71677
O 5.05717 -0.733399 7.585
O 1.50371 -5.26586 -9.4556
O -6.79935 -6.01859 -7.48378
O -9.28981 -5.10686 -0.582401
O -7.37521 -8.17065 3.24085
O 1.40646 -4.92237 6.3766
O -1.24895 8.9618 3.10344
O 4.76934 0.589065 3.22254
O -10.4757 5.64919 -5.40299
O 1.73505 -8.20628 2.93823
O -9.83419 4.28622 -0.694332
O -9.06053 2.51841 -5.25431
O -5.45564 -6.85907 4.50509
O -4.09049 -3.54362 -2.94932
O -0.843446 -7.33081 -9.78737
O -0.229484 2.58264 8.83444
O -1.00934 -8.46117 4.89847
O 1.14046 -5.15048 -3.89264
O 8.45008 8.95303 1.18917
O 4.69178 7.4485 9.05964
O -1.68409 0.576365 9.3604
O 7.95377 5.31015 -4.50777
O 3.62157 10.3412 6.06987
O 6.29075 7.21326 -3.89659
O -4.38501 0.813187 2.54777
O -9.12126 -8.15699 8.10002
O -3.12385 -0.0835693 0.266964
O -9.31017 -9.7292 -2.01838
O -5.13561 -7.42824 -0.522078
O -10.3804 -5.97148 8.41845
O 0.386806 -9.21421 6.86626
O -1.97624 -2.18974 1.31339
O 4.73141 -9.76137 -7.11747
O -5.23225 4.02184 -1.1736
O 5.33897 7.29742 6.57117
O -2.56559 5.46543 7.43835
O -0.543094 5.98546 3.2737
O -10.083 -8.23778 -3.9687
O 9.96951 -3.6064 8.13615
O -5.90366 7.19633 -7.41425
O 2.8735 4.04214 -7.49306
O 5.44032 -9.11868 -0.132579
O 8.56558 4.62044 -0.277723
O 8.27925 -3.87303 -3.8584
O 7.66045 -4.53606 8.94328
O -1.3546 9.1198 -3.48294
O 8.26182 -4.49766 -8.51173
O 0.729469 4.94656 9.4492
O -4.51292 3.94774 6.46522
O 3.75335 3.14529 -2.5597
O -5.53813 6.19957 2.0521
O 9.81086 -7.6436 6.53453
O 5.16296 3.02026 2.21867
O 3.50585 7.27927 1.86
O 2.37303 2.78352 9.14431
O 8.17491 8.87613 -3.93025
O 3.71176 5.02005 1.02837
O -10.385 -2.85685 0.349144
O 1.32157 -10.1334 -6.74478
O -0.359354 -5.84789 4.60973
O 7.70117 -4.47094 0.400061
O -5.10985 1.11493 -7.4413
O -2.17726 0.811036 -4.26576
O -3.39367 7.15031 3.13934
O 10.0416 5.49766 -2.95536
O -8.57851 -6.18635 -3.99707
O -0.894988 7.71829 -7.81298
O 10.263 -3.58885 -2.05702
O -3.53381 -9.88358 -7.13918
O -0.942717 -4.80012 -9.02556
O 10.1094 -7.43586 3.81342
O 4.16313 8.819 3.91394
O 6.12879 9.22542 -2.37262
O 1.27581 3.82099 7.17897
O 7.46292 -5.6747 -5.78478
O -1.51447 -2.17639 8.64327
O -1.07872 -2.74205 -7.28297
O 0.503391 -3.02957 -5.3405
O -6.92137 -5.57438 -10.0015
O 4.05049 -1.06949 1.20337
O -4.57016 -9.14637 1.44892
O 1.23806 9.17058 -8.50115
O 9.41844 -6.1713 -0.515639
O -6.64009 0.426511 3.81818
O -7.63107 -4.60425 6.14247
O 6.7079 8.87744 8.34069
O 4.99723 -2.28394 -4.70784
O 7.35102 -6.9426 10.3879
O 6.07353 8.1205 2.35935
O -2.76673 2.86985 8.44803
O -7.99582 -10.1928 -0.0112308
O -0.808974 4.1036 1.60798
O -7.40489 -5.45253 3.64418
O -4.93037 5.03188 4.14065
O -8.63513 10.4864 3.68548
O -4.37995 -8.64872 5.95649
O 5.04902 -4.65263 -5.73069
O -6.63554 -0.695655 -6.1125
O 4.50873 1.87187 -7.61261
O 7.13429 -5.64047 5.80409
O -0.150662 6.61455 -4.19972
O 1.04462 8.53073 -6.09366
O 6.70264 -0.581361 9.77435
O -7.05412 4.07223 5.40058
O 4.00709 -5.13926 -8.74497
O 8.06229 -8.70823 4.94974
O 3.6806 -0.35779 -3.67563
O 3.05321 -9.58721 0.948103
O -2.75313 7.05472 -4.03688
O -0.28478 1.57857 -7.70508
O 7.18882 6.46165 7.83784
O -9.79494 -5.20202 4.32332
O 5.1676 -1.84802 3.30011
O 10.3233 6.66697 -0.755949
O 0.0957412 -9.71021 -9.28355
O 4.34185 -5.93927 1.53699
O -6.00729 -10.2796 -1.91607
O -8.45053 6.67641 -2.30394
O -6.91867 6.15725 -0.15055
O -6.98853 8.85192 -5.57742
O 10.3376 -0.352247 1.17221
O 2.92568 3.37186 5.16119
O 1.6283 10.3269 -3.95839
O -5.32717 -10.3033 -9.03261
O 4.92896 6.37015 3.9969
O 7.00207 0.98516 7.98271
O -5.57966 -6.88144 1.98507
O 2.65187 -9.0185 7.90151
O 2.01285 -5.7393 4.05674
O 7.14753 -7.26874 7.97174
O -3.11504 -7.09772 0.873555
O -3.72081 -2.26519 -0.797014
O 1.99472 7.30978 9.3745
O 7.21579 -9.56145 9.17779
O -3.61844 -1.09667 -3.12937
O 2.54739 -2.96248 -8.3013
O -1.78709 -3.56194 3.59147
O 9.00216 0.129228 9.27208
O -1.60505 -4.04825 -2.35948
O -9.5108 -7.86528 -0.139174
O -1.48703 -9.28737 -2.61095
O 4.38397 -0.740641 -8.22358
O -7.09366 -6.46343 7.94299
O 9.71996 3.3951 -4.33507
O -8.34365 -2.70199 -6.71408
O -5.65164 6.51479 -2.14431
O 7.92461 -2.35942 7.23908
O -6.1019 3.91116 1.13902
O 2.74974 -1.79159 7.2394
O 5.85724 -7.9241 5.9421
O 5.01384 0.0421421 -5.95275
O 7.20503 2.55062 -1.48546
O 9.8178 -5.84047 -4.49733
O 1.19195 -0.91495 5.56182
O -7.36789 -4.06794 -3.05817
O -6.19806 -6.37102 -2.77156
O -5.32337 2.50822 4.44166
O 4.28 -5.70556 -1.04034
O -4.18676 -6.1959 6.75992
O 0.56345 -7.53898 -2.62101
O 8.40366 -0.400922 -5.58571
O -0.84125 4.50568 -1.29624
O -5.62346 -4.22764 7.71762
O 0.984126 -7.15971 -5.37591
O -6.04345 -1.90489 -2.32695
O -3.20138 -3.43626 -8.44644
O -8.49454 2.03895 4.61771
O -2.64567 -7.55315 -5.6883
O 6.95173 -3.44571 4.38648
O -0.519952 6.91851 8.33781
O 3.6044 -3.62643 0.396925
O -9.80652 1.87005 0.0428172
O -1.04746 6.77528 5.77474
O -0.538385 2.36135 -2.8413
O 2.93872 -7.72381 -7.0718
O 9.73868 6.32482 3.83645
O 9.33051 -8.12548 9.04335
O -9.18289 1.67078 -7.7604
O 0.0275207 -4.3442 8.4504
O 1.78221 -0.369698 -8.21593
O 7.12168 -10.1984 6.68865
O -9.03895 -6.75124 -8.72422
O -1.2496 -1.86559 -1.04313
O -2.84623 -6.81163 4.61291
O 3.3397 9.73158 -5.62243
O -3.2227 5.54814 -1.25158
O -6.19544 10.4735 2.80816
O 2.68429 -1.18384 3.47522
O -4.61318 -8.34757 -2.88002
O -8.02431 -1.8386 -4.12227
O -2.64757 3.28908 -4.13171
O -0.667157 2.65384 -5.4696
