588
Atoms. Timestep: 1790001
Si -5.60035 6.98251 -9.6907
O -5.80392 6.91603 -11.3746
H -5.22934 6.33601 -11.8603
Si 8.22911 8.11801 -9.2967
O 7.95671 7.91097 -10.9861
H 7.12662 7.49749 -11.1922
Si -2.56953 7.80266 -9.27978
O -1.90897 7.26394 -10.7767
H -1.51565 6.39921 -10.7831
Si 7.79002 -9.67423 8.67888
O 7.37566 10.2891 10.0425
H 8.09141 9.7648 10.3821
Si 3.28282 -2.51714 8.95896
O 2.67285 -1.95092 10.4335
H 1.96753 -2.48454 10.7803
Si 7.79593 5.45476 -7.94959
O 6.53454 5.04536 -8.95886
H 6.48981 4.1239 -9.1856
Si 5.87336 -4.27941 9.50733
O 6.11524 -4.44949 11.1839
H 6.89641 -4.90332 11.4777
Si -10.1368 -10.1059 8.77571
O -10.3087 9.73245 10.0275
H -9.54651 9.16791 10.0811
Si 4.33244 -6.1975 -7.56466
Si -7.60077 -3.07685 7.73767
Si 2.63723 5.98035 7.27871
Si 3.50301 -4.54231 -3.25461
Si -6.62774 -4.63174 -2.85078
Si 2.3106 2.8235 3.88984
Si 0.0426485 -8.45543 0.294836
Si -2.1531 -6.58842 -1.25796
Si -9.89556 8.26226 3.71359
Si -5.38951 -5.30296 4.5847
Si 7.09216 0.662542 4.04774
Si 4.03708 -10.0444 2.92369
Si -1.93494 -6.83015 6.04046
Si 1.68538 -6.92244 -4.33892
Si 3.81695 7.53788 -6.08475
Si -3.28107 9.75243 -0.0624774
Si -7.26456 3.57954 2.58498
Si 10.1304 -2.83595 -2.3474
Si -5.54275 4.10744 -8.27222
Si 9.40006 5.70768 3.1892
Si -10.1348 -9.08849 -0.0820825
Si 7.68363 -6.39567 3.63354
Si 0.143844 -1.0884 -0.571309
Si 3.28493 0.084429 7.18785
Si -2.75112 -1.28341 -6.29649
Si -6.78221 -1.73302 -1.90846
Si 6.55646 -4.32022 -7.59448
Si -4.54144 -8.50199 7.03921
Si 1.07265 9.98302 -1.32014
Si -1.14021 1.15814 -5.721
Si 9.98375 4.47356 5.77907
Si 9.06736 4.20115 0.460344
Si -1.75859 6.9918 0.605249
Si -9.43581 -0.209679 4.67401
Si 2.84852 -7.48279 3.92404
Si -1.93804 5.75068 7.16162
Si 3.93913 4.5829 -1.29354
Si 6.99215 9.59424 6.07361
Si -1.50761 -5.34606 -7.22161
Si -5.02071 7.85274 3.30089
Si -3.96024 -2.04737 6.30761
Si -7.41885 -1.27081 -8.39002
Si 7.38908 9.15692 -4.64971
Si -4.68018 4.84989 3.6543
Si -2.59183 8.56848 -5.21524
Si 2.85018 8.58945 -3.37709
Si -2.90412 -6.5226 3.16613
Si 3.95829 1.68862 -3.80079
Si -6.54982 -9.71351 -2.8569
Si -9.2567 -4.16422 -6.39065
Si 6.74348 2.16802 1.37779
Si -1.10758 3.10545 6.59555
Si -7.69931 -0.0571795 7.99007
Si 5.72025 -7.30392 8.51099
Si 1.93307 2.22377 -5.98251
Si -0.83807 -4.34631 2.75335
Si 6.32077 -5.16208 -4.51338
Si 10.4647 -4.95383 4.49505
Si -7.18176 -6.92839 -8.02729
Si -7.41376 -8.65129 5.69827
Si 8.38532 -3.08057 7.90122
Si -9.4003 -5.48225 -3.57794
Si -0.74618 3.34143 3.39679
Si -2.84697 10.3931 -7.7855
Si -9.81502 -0.381146 1.70986
Si 8.68612 0.496059 -6.00158
Si -7.70745 0.258954 -4.06892
Si -5.24696 -3.63576 1.99545
Si -6.65001 1.49065 -8.62231
Si -1.54087 -3.60791 -1.607
Si -8.60576 7.44448 -5.17302
Si 9.02852 -3.0737 2.84514
Si 7.98539 6.65285 5.60649
Si -8.00633 3.18575 -3.92193
Si 6.96325 -2.33228 5.07785
Si -3.15152 3.61171 -6.16835
Si -6.00594 7.90239 6.26407
Si 6.68849 -5.22083 0.921871
Si -0.156593 -1.33284 2.53478
Si 4.15963 1.78146 -0.514517
Si -8.02069 -6.4625 3.59742
Si 0.14511 8.08043 2.83483
Si -8.16535 3.24493 -6.93265
Si 9.31205 9.84598 1.62321
Si 9.69307 3.51303 -6.70594
Si -5.53635 -6.89299 9.48846
Si 3.88146 9.93895 5.85068
Si -2.50343 9.56223 3.83068
Si 7.19641 -9.56706 3.43791
Si 2.3013 8.84548 8.17658
Si -8.49873 -7.44936 8.5124
Si 8.75152 -7.85854 -5.85098
Si 9.30199 6.41304 -1.73209
Si 1.20045 -7.1687 6.62989
Si 7.33168 8.20959 -0.375596
Si -2.27595 0.666211 3.32609
Si 5.48591 9.79258 -2.26922
Si -10.4326 9.98266 -8.25463
Si 5.94943 -8.78003 -7.25782
Si -10.4842 5.03457 -4.20212
Si 3.66831 -0.330272 -5.92269
Si 5.37158 4.97345 6.08254
Si -1.93456 -8.3118 -6.30622
Si 4.07571 -7.93379 -5.06057
Si -4.20264 -0.751992 1.3894
Si 6.44511 -1.3993 -6.5685
Si 2.70526 8.98959 1.21763
Si -5.16135 -5.82703 -0.421466
Si 3.90108 -5.73164 -0.47777
Si 7.59764 -7.5944 -3.13297
Si 7.73469 1.05375 -2.92461
Si -3.83883 -3.81366 -7.66604
Si 1.48701 -3.90747 6.83734
Si 6.00025 -1.11759 -1.55827
Si -9.42137 -8.64733 -3.19661
Si -9.60746 -0.998134 -6.10103
Si -0.932518 -8.06752 -3.48709
Si -2.21725 -9.11424 1.96922
Si 4.97638 4.30166 2.97889
Si -1.37021 -3.83565 5.8208
Si -8.73703 9.57232 6.28731
Si 1.76267 5.22186 -6.29189
Si -7.60314 8.64797 -7.89523
Si -4.98756 4.07478 -3.48492
Si -6.09361 2.34496 7.23508
Si -6.88375 -1.43524 5.36873
Si 2.29393 -0.315192 4.13638
Si -8.88403 4.13495 -0.016313
Si 9.08068 -6.72609 -0.56558
Si 5.62645 1.81839 6.29498
Si 3.26472 -9.17116 8.11692
Si -0.734961 8.50543 7.88866
Si -10.2206 -8.02759 -8.02794
Si 4.85408 -8.36895 -2.01465
Si -8.03049 1.54929 -1.53385
Si -3.08524 3.13469 -1.46612
Si -4.66076 -8.45864 -4.79447
Si -5.7868 -9.69335 -7.54669
Si 1.62578 5.76377 -3.10902
Si 6.1615 3.66603 -3.34316
Si 1.97246 -2.87174 -5.38403
Si -6.88949 0.866058 1.12304
Si 7.07241 -2.02718 1.18256
Si 3.17908 -0.995416 -0.206941
Si -4.96042 5.03499 6.82317
Si 2.03514 2.91145 7.00071
Si 10.4171 9.93516 -5.01021
Si -3.36199 9.53126 6.93033
Si -1.66972 0.484491 -2.61879
Si 5.99756 9.28221 -7.50224
Si -5.58985 -0.113765 -6.24987
Si -6.28302 -10.303 0.281657
Si -1.42269 5.79688 -2.09011
Si 4.76457 6.67819 0.871604
Si 7.43715 -2.64675 -3.70593
Si -4.10226 7.08884 -3.21174
Si -1.57382 9.98391 -2.5591
Si -10.1237 -4.878 7.61643
Si 0.202078 7.03642 5.5488
Si 10.2727 0.0355871 -1.23888
Si -8.63273 2.76649 5.31488
Si -7.26813 -7.72906 0.875844
Si -5.10258 -4.48095 7.64762
Si -3.59759 -1.44943 -1.48578
Si -1.09501 -3.4478 -4.75237
Si -6.81776 8.18684 -2.78061
Si 6.55011 6.2765 -5.09058
Si -6.83593 -4.08295 -8.48285
Si 8.5499 1.84509 6.37104
Si -7.60966 8.40085 1.67452
Si -1.26532 6.24242 -6.76837
Si 10.3666 -4.31891 0.305803
Si 4.21448 -1.97724 2.49802
Si 4.03367 -3.50309 4.96269
Si 10.3332 -0.533068 7.46572
Si 9.29306 -5.59203 -7.58654
Si 1.5853 -6.00829 1.51872
Si 1.47315 -5.33615 -7.07493
Si 5.21591 -6.28347 5.55347
Si -5.39551 -5.58367 -5.59251
Si -2.72475 4.34106 1.43222
Si -8.88926 7.14103 -0.762214
Si -3.34974 1.01616 6.2556
Si -8.09389 -2.78121 0.762351
O 7.76567 8.20275 5.91739
O -2.25203 2.02534 6.78925
O 0.389524 -2.9316 -5.00658
O 8.13212 0.858909 -4.51275
O -1.19452 -7.66521 -0.446325
O -4.53626 3.26549 -2.18577
O -7.32291 -0.321148 6.46415
O -9.4189 0.879238 -1.4307
O 3.66482 -0.84151 3.4532
O 3.77919 -4.67875 -1.66034
O -8.48839 0.640173 1.4466
O -9.52545 -2.59082 -5.85083
O -2.56131 -4.63723 -8.20596
O -2.87572 -7.67448 2.04394
O -1.55962 7.44905 -5.75437
O -2.33524 1.82623 -2.02959
O -1.9886 -7.03981 -2.80189
O -0.561072 -2.49341 -0.936726
O -10.2742 -4.16679 -2.99989
O 6.95738 -3.61307 0.833923
O -2.59123 8.39294 0.346233
O -2.31397 9.30477 -8.82993
O -8.28204 3.24962 3.80201
O 9.40692 -1.74879 8.06761
O -2.26137 2.26147 -6.0322
O 3.92193 1.59273 -2.17547
O 4.39275 -8.22079 8.82638
O 5.25652 -7.52601 -7.9929
O 1.76049 5.30876 -4.64295
O 7.9948 2.97064 0.761152
O 1.16517 -6.07612 -5.65746
O -2.23201 4.41722 -2.06197
O -9.07845 -3.98949 0.446398
O -9.75413 -7.03494 -3.4804
O 5.40509 -2.65763 5.24831
O 7.2337 -10.3573 4.84198
O 4.27487 8.83808 -2.68055
O -2.60838 -2.82131 5.73175
O -8.19859 3.06018 -1.06761
O 4.16857 0.280007 -4.50005
O 2.35383 -6.32972 2.89256
O -9.9064 -9.06508 -1.68168
O -4.25086 3.84186 -7.35627
O -1.25706 -0.545789 3.38843
O 2.60205 4.84952 -2.19469
O -7.33947 9.69453 0.853913
O -5.78119 -8.43416 5.92791
O 2.76521 -6.04836 -7.83762
O -7.03541 -3.07763 -2.77452
O 6.88303 -1.94378 -5.05767
O -9.57414 6.12482 -5.07116
O -7.80352 -8.87739 -3.30568
O 3.3778 0.597454 0.129076
O -9.75064 3.75751 -7.09204
O -6.7312 9.99601 -7.51279
O 2.0395 9.22115 -0.312562
O -6.76922 -3.24287 1.56316
O 9.75395 4.43506 4.10796
O -2.92006 5.87554 0.955665
O 4.38919 -4.95008 5.61338
O 0.612153 -9.67775 -0.518037
O 6.20387 7.32232 0.459359
O -0.258645 8.32842 6.3374
O -6.44472 0.199796 -4.98698
O -10.437 -4.55575 -7.32619
O 2.76565 7.27014 8.38386
O 1.88596 9.85161 -2.76887
O 9.44309 -4.2847 7.96078
O 3.61274 10.1384 1.69406
O 2.34216 4.3762 7.72598
O -3.73286 8.777 3.12544
O 2.88508 0.994481 -6.50068
O -2.21113 -5.15963 2.55185
O -2.07855 9.36261 7.90963
O -5.7204 8.17126 4.71061
O -6.88154 4.17606 -7.24816
O 9.07556 0.662873 -2.05762
O 6.93672 -8.35927 8.62982
O 6.40698 -4.89212 -6.07497
O -7.87173 7.91459 -1.60966
O -7.41171 7.38763 -4.07314
O 7.49621 -4.19637 -3.97543
O -8.9314 -0.174989 -4.88736
O 2.48374 -1.40953 -5.69498
O 2.87615 10.313 8.72037
O 4.87383 -0.99848 -6.62209
O -7.91566 -10.1481 5.67454
O 2.74004 -3.45142 -4.09528
O 9.24897 1.90379 -6.60919
O -5.9678 2.79732 -9.15745
O 2.98201 8.48088 -4.9599
O 7.45299 -8.24064 -6.76604
O 5.43445 -6.9928 6.95333
O -3.22815 -7.59496 6.53191
O 6.70433 5.80751 6.1874
O -6.82213 7.79635 -8.96705
O 9.73641 5.75902 -3.1088
O -4.85279 9.9591 0.252213
O 4.92555 -4.65258 -3.95174
O -9.13346 -1.78738 1.49764
O -7.41883 -0.547096 -2.70147
O -4.74955 -5.67435 8.6326
O -3.57508 5.70218 7.19935
O -6.56916 3.8252 -3.69525
O -7.86055 -4.09558 -7.16695
O -4.95568 -6.89358 10.9181
O -3.1953 -8.73133 -5.38868
O -9.57147 -6.25104 8.2491
O -9.0749 -3.65216 7.94503
O 7.05096 1.04003 2.44499
O -5.0921 -4.99473 6.12784
O -7.90018 1.76828 -3.25321
O -4.64878 4.52805 5.22875
O -4.31525 -10.0658 -8.11506
O 8.52086 6.67502 -8.59758
O 7.12061 -3.46399 8.82403
O 7.06504 1.74622 6.9674
O 8.21266 -10.2588 2.41237
O -8.03707 -7.84623 4.45315
O 5.75441 -1.71863 2.06537
O 5.62249 -9.66434 2.90962
O 1.41061 8.83553 2.15792
O -5.73908 1.15479 -7.21861
O -2.75877 -0.606189 -2.44153
O 2.69635 1.57529 7.60672
O 2.52434 -8.11817 -5.00252
O -8.03508 -0.990773 4.30606
O 5.28711 -5.47679 0.291798
O 2.85475 6.40073 -6.70347
O -2.54271 -9.96589 3.30776
O 4.44949 -1.14644 -1.21052
O 4.7311 0.670895 6.76861
O -9.26965 -5.08085 -5.11637
O -7.42755 8.6092 6.61761
O -4.68006 8.54971 7.00015
O -1.36349 6.94993 8.0512
O -9.59314 3.88048 5.99208
O 8.85642 -2.26298 -3.22102
O -1.15666 6.15774 5.75937
O 6.50008 -8.1838 -2.11488
O -9.60612 8.73271 5.2077
O 2.14475 7.23771 -2.9611
O 4.99659 6.73194 -5.21973
O 6.37673 9.90443 -3.65448
O -8.01166 -5.4342 -2.77613
O -0.674165 -8.89948 1.71968
O 8.52104 -1.83642 1.94566
O -6.1829 7.78621 2.17627
O -3.35534 0.216462 2.21366
O -10.2016 -0.192088 3.21564
O -7.33134 -1.65023 8.41361
O 6.49514 9.3201 -1.14604
O 8.64934 4.17584 -7.69914
O -5.78954 -0.257644 1.33608
O 5.24689 3.39613 6.51067
O 1.82991 -7.54049 5.15534
O 4.68093 -9.92811 -1.80313
O -9.19367 1.30869 5.13898
O 6.77558 -1.17835 -0.159955
O 4.6875 8.40841 -7.13106
O 5.03053 -8.91007 -5.86789
O -2.58755 6.80614 -2.72227
O -6.40984 -8.37992 -8.26533
O -3.03662 9.4717 -6.47525
O 6.72444 -6.64217 -4.0472
O 2.56002 3.07485 5.47853
O 0.876747 3.38855 3.48779
O -2.16045 4.89861 -6.2782
O -8.07292 7.78709 -6.65125
O 7.72497 -3.16029 3.89036
O -2.60962 -10.1169 0.787582
O 9.37081 9.22912 -8.98774
O -5.29224 -1.65194 5.37529
O 8.45335 -8.28521 -4.31463
O -9.37462 4.02004 -3.70099
O -10.2487 -1.43765 -1.91241
O 8.33374 1.29366 4.81597
O 2.08284 -3.89145 -6.57148
O -8.51355 7.4776 0.761189
O -4.0974 -0.463004 -5.93902
O 6.51886 0.0896353 -2.4837
O -6.4105 -6.30062 -6.65426
O -9.52306 10.1247 7.51048
O -5.30204 -3.82899 -8.38081
O -7.5644 -6.78924 2.12174
O -7.53498 -2.05798 -0.53337
O -3.75546 4.09469 2.64864
O -10.1896 -5.05314 6.01727
O 6.47926 -2.39993 -2.43479
O -0.345805 9.36216 -1.7796
O 6.03928 3.3278 2.2879
O 2.72106 9.0025 6.5484
O 6.68142 -6.04181 4.945
O -9.14747 -8.83996 9.11356
O 9.46156 0.81789 7.18951
O 4.62225 -3.41143 9.07479
O -6.87884 1.1491 -0.482129
O 9.40535 -9.55844 8.55047
O -1.6781 -0.127656 -6.58975
O -8.72875 -8.37234 0.447097
O 9.69086 -3.41527 -0.881511
O -6.53204 -4.10827 8.16345
O -4.19505 7.63409 -9.30973
O 5.66176 1.66982 0.167367
O -4.04728 3.60887 -4.76984
O 6.64296 4.9712 -4.1623
O -3.58899 -0.826269 -0.0413937
O 4.84913 5.59459 2.04949
O 0.0729542 5.77114 -2.70134
O -4.34853 -6.33001 3.88243
O -3.4578 -0.5015 6.77704
O -6.00747 6.3271 6.52686
O -0.0338182 -0.766328 0.988323
O -4.95736 -4.88416 0.914171
O -9.02571 9.23858 -8.39594
O -1.38205 1.92572 3.01973
O 1.3547 6.32105 6.39631
O -5.51747 3.81989 7.63794
O -3.93519 -9.98025 6.96311
O 6.88682 9.41272 -6.1704
O 7.23125 7.5793 -4.44413
O -0.45992 -7.24994 6.60148
O 7.42312 10.4557 7.39608
O -1.26915 4.22341 2.18516
O 10.0278 9.11816 2.87769
O -10.3133 6.72126 3.41659
O 7.80435 -6.09359 0.14133
O 4.1102 5.79779 6.62099
O -8.036 4.12536 1.32189
O -3.2558 -2.32839 -7.40898
O 8.38786 8.98054 0.593852
O 10.2023 -0.184897 0.389618
O -4.29273 -4.69626 -6.37168
O -1.94717 -6.91588 4.42942
O 4.3368 -8.0473 -3.50156
O -7.20261 -6.894 9.27947
O -1.08065 6.38141 -0.648658
O 1.72172 -1.16876 -0.874315
O 0.535852 -7.40376 -3.28684
O -10.2364 -9.45449 -8.77016
O -1.52573 -5.10757 -1.07348
O 9.6697 4.28432 -5.28271
O -7.35631 -2.78738 6.10974
O -3.05187 0.903754 4.70408
O -8.03058 -7.90659 7.03169
O 4.21602 -7.24944 -0.985293
O -1.45415 4.33505 7.57039
O 2.61758 -5.84791 -3.54313
O 6.86381 8.58575 -8.59826
O -0.833934 -4.27603 4.39156
O 9.90283 -6.74307 -8.49833
O 4.26227 5.9075 -0.499874
O -1.21829 -9.49431 -2.86154
O 2.04726 -8.15826 7.67315
O -5.63744 -4.91034 -1.61952
O 10.0007 -8.3781 -6.6168
O -0.0539972 -3.42648 6.58479
O 7.5227 -0.20777 -6.80895
O -0.720616 -2.84361 2.3195
O 7.98238 -4.8253 -8.08549
O -5.17958 -1.52826 -1.8353
O -10.1916 -0.92065 5.91587
O -6.30518 -1.25482 -7.13718
O -5.34446 7.68796 -2.37761
O -10.4149 3.67687 0.24724
O 2.57954 2.21681 -4.51448
O -1.28049 -3.75368 -3.19635
O 9.62057 -4.11774 1.72381
O -10.428 7.27204 -1.23694
O -2.76681 9.36222 5.45643
O -6.34399 -6.91099 -0.207894
O 0.739536 8.86073 8.51953
O 10.292 -5.77325 -0.332783
O 0.310327 1.77637 -6.01301
O -8.56693 8.47919 2.9184
O 10.4134 9.99828 -6.63435
O -2.04957 -6.88809 -7.09161
O 3.77921 -9.68253 6.66865
O 8.90724 9.59859 -4.52241
O 4.30465 -6.60175 -5.91664
O -1.5203 -4.63136 -5.79011
O 5.39699 9.35011 6.13142
O -6.89794 1.30071 8.21346
O -4.82549 1.59285 6.52704
O 1.37761 -5.55519 6.74145
O 7.21448 2.57652 -2.78958
O -3.07849 3.42113 0.101023
O 4.31491 -7.17033 4.48175
O -4.70502 5.63749 -3.3522
O 2.56654 -3.31896 5.75586
O 6.58409 -2.6908 -7.47544
O 0.327168 -5.20687 1.98686
O 7.24097 5.87906 -6.49641
O 2.03279 3.71819 -6.61049
O -1.15626 0.765131 -4.1341
O 5.84483 1.49909 4.72964
O -6.56118 -9.8615 -1.25259
O 3.95219 -3.32851 3.33917
O 9.0831 -5.7888 4.06909
O 9.11361 5.21153 1.72278
O -9.58703 8.64886 -4.61755
O -6.98145 0.0287011 -9.20853
O 1.16605 -7.38785 0.820191
O -6.6387 2.23158 1.92946
O 9.07499 -6.2939 -6.09377
O 8.25017 6.49223 3.9815
O 9.33443 5.91695 6.11013
O 10.1735 -3.42519 3.94215
O -1.80692 -9.47726 -7.39255
O -2.98489 -2.90116 -1.43887
O 5.16324 -4.93425 -8.08754
O -7.13216 -5.61735 -8.94361
O -9.38324 -5.68671 3.70767
O -8.72969 -0.889142 -7.45782
O -7.99227 2.03075 -7.95263
O 3.80275 10.1985 4.30567
O 7.08059 -0.820214 4.63075
O 9.9074 -0.535216 -6.05927
O 7.76415 -2.73594 6.41586
O -2.13416 -2.25334 -5.22478
O -4.33515 -2.30302 1.80159
O -4.45665 -3.00391 7.46784
O -5.21643 -9.04413 -3.37635
O -6.33922 -8.97157 1.1479
O -5.14235 -8.09961 8.49004
O 9.05678 3.36034 6.34158
O 8.12939 7.39867 -1.44524
O -0.513618 -0.0254986 -1.58432
O 2.99461 -8.81811 3.12472
O -1.98737 9.43455 -4.02137
O -2.01768 -5.24239 6.37885
O 8.92294 5.144 -0.828239
O 5.41727 4.83438 4.42332
O -2.89761 9.79767 -1.64133
O -9.32285 -0.0446594 8.06147
O -8.67841 -7.46654 -7.65933
O 5.24496 4.20456 -2.13991
O -0.859189 -8.24688 -5.06888
O 3.62057 3.44139 3.12455
O -5.1744 -4.09647 3.52984
O 5.78369 -5.81048 9.0656
O -8.07527 2.746 -5.47559
O -5.56099 -9.20695 -5.98358
O 2.69964 -5.49623 0.521266
O -5.97412 -4.7825 -4.32251
O -6.84689 -5.75937 4.41981
O 0.226529 5.65829 -6.80397
O -1.94829 6.79359 -8.19644
O 6.95855 -5.6873 2.40064
O -4.40855 6.3743 3.58042
O -0.00191198 -5.3175 -7.74665
O -3.71598 -6.51858 -0.858392
O -6.56198 9.70091 -3.15058
O -8.79078 5.51578 -0.77469
O 3.67261 7.73912 1.24853
O -7.48105 -2.69389 -9.02736
O -0.664037 7.22708 1.74257
O 8.64354 -6.90507 -2.13934
O -7.26421 2.6859 6.20617
O 0.664397 7.25975 4.04914
O -1.06386 9.03265 3.42685
O 2.11199 -3.37897 8.21269
O 2.16976 1.24638 3.71164
O -5.43265 5.4716 -9.1321
O -6.18737 4.5686 3.13648
O 0.454476 2.65126 6.90456
O 5.90468 -10.1785 -7.98421
O -3.91807 7.8512 -4.56919
O 2.46021 -0.269504 5.74574
O 3.7098 3.28761 -0.356982
O 10.4048 -10.4192 0.74931
O 3.50639 -1.19922 8.11822
O 3.37958 -1.87495 1.10894
O 1.14394 -1.20637 3.43839
O -9.99249 -9.85263 -4.16545
O -4.7129 -6.87318 -4.90059
O -1.15751 3.48709 4.96655
O 5.07267 2.76936 -4.15918
O 9.52369 -8.15255 0.0252272
O 7.51833 -8.00194 3.54533
