582
Atoms. Timestep: 1790001
Si 0.157843 -1.17731 -9.86025
O 0.278119 -0.668863 -11.49
H 0.597207 -1.3109 -12.1133
Si -9.80455 2.11213 -9.61515
O 10.3206 1.76917 -11.0742
H 9.91208 0.911518 -11.0792
Si -1.50941 -3.69978 -9.67743
O -1.95177 -4.45571 -11.1412
H -1.68573 -5.36755 -11.125
Si -6.74763 2.79439 -10.3609
O -6.69683 3.13153 -12.0552
H -6.84994 2.40335 -12.6458
Si -6.48215 0.720502 -1.49252
Si -1.53272 -5.81266 -7.19785
Si -8.46106 2.77498 -0.273365
Si -8.11437 -9.35272 -5.19087
Si -2.28206 8.13726 -0.570052
Si 3.97206 -10.001 8.66682
Si -4.64818 0.986107 0.894631
Si -6.42893 0.0485016 2.62993
Si 9.18834 -5.03392 -6.04249
Si -10.1684 -7.09065 -0.158091
Si 4.71045 -8.66717 -0.758464
Si 5.87107 5.76535 5.05897
Si -8.08884 6.81299 -6.99315
Si -7.56364 -3.69902 6.87039
Si -5.6968 0.684324 7.68479
Si -2.22568 -3.6709 7.75491
Si 3.22506 2.20635 -0.478941
Si -1.74123 1.48016 5.19039
Si 7.13857 -0.636555 -4.88271
Si 8.78984 -0.839213 2.58078
Si 9.3099 -2.14526 -6.27007
Si 9.76411 -1.22313 -3.3734
Si -3.43762 -5.78057 5.59111
Si 8.23773 3.30273 -3.01446
Si 0.203386 -6.43064 -2.97424
Si -9.56461 -2.8838 -1.24639
Si -3.48719 5.91714 -4.7182
Si 3.01801 9.81813 5.69061
Si 9.04813 -4.8361 -0.819593
Si 5.39862 2.82331 1.72835
Si -8.8562 5.01579 -2.53489
Si 5.29012 -1.48492 -0.762667
Si -5.92419 -2.37755 4.64129
Si -1.02447 9.51903 8.74694
Si 5.00092 -2.39242 -3.69793
Si -3.5716 7.21451 -7.64915
Si -6.89906 -8.56904 -7.77958
Si -5.73283 5.43399 -2.57408
Si -8.67446 5.05476 8.19429
Si -5.46747 7.14801 5.76917
Si -1.97389 -8.51014 -3.91245
Si -9.45334 10.2481 5.56668
Si 9.12773 -8.70901 -3.93941
Si -4.67691 -8.7164 0.629149
Si -10.0615 -0.0252531 6.55842
Si -8.27025 2.54439 2.946
Si 9.88502 4.88685 1.40465
Si 9.28544 -9.63739 0.665662
Si 9.9984 6.85543 7.92684
Si -2.52569 -1.59431 -1.10175
Si -1.11335 -7.74416 4.96297
Si 2.77859 -0.642094 0.758185
Si 1.22441 2.64306 5.58084
Si 7.09273 -7.26046 5.62863
Si -1.06517 -1.29915 5.87209
Si 0.272592 -4.93822 8.96486
Si -3.05019 -1.56882 -5.75415
Si 3.01111 6.33749 2.04445
Si -9.10753 -7.33721 -3.06997
Si 8.66725 7.99 -5.57137
Si -10.1789 -3.04496 3.27498
Si 8.62294 9.1586 4.89766
Si 7.3136 0.659459 0.365569
Si 2.40015 -2.68867 -5.43032
Si -8.40185 10.0153 8.6307
Si 8.97165 9.85633 -2.09217
Si -7.52924 0.806102 5.32588
Si -8.40623 1.99775 7.8455
Si 4.72615 -4.22573 7.35129
Si 5.12091 -6.23064 1.20422
Si -4.22003 -4.49877 -6.14286
Si 5.28203 3.56095 -2.3521
Si 2.49394 -9.21441 3.33406
Si -6.68753 -5.34812 -7.67828
Si 3.18974 8.22203 -2.49381
Si 9.71872 2.35408 -0.536479
Si -0.251624 5.34839 5.46887
Si 7.28789 7.3215 7.10014
Si 4.31164 -7.27872 7.15683
Si -7.98809 1.87027 -5.48409
Si -1.46332 4.64087 2.59394
Si 6.82393 -3.63959 0.812993
Si -3.97103 3.66196 -0.733264
Si -5.29145 -1.56954 0.261598
Si -7.17771 -2.18777 -7.96089
Si -4.95128 -2.21636 7.55514
Si -6.562 -6.5327 6.18094
Si 2.62978 -3.89241 5.0579
Si -8.71641 -5.1281 -5.24242
Si 8.08489 6.44669 -3.14295
Si 10.4197 8.55651 -7.77447
Si 8.6914 4.45727 4.30526
Si 4.84437 8.3019 3.59366
Si 7.62334 2.29919 -5.7892
Si 5.61575 -8.74945 -6.47608
Si -2.68234 -1.04184 -8.79061
Si 0.0542053 2.0024 -4.43945
Si 7.11826 -4.82784 -3.46604
Si -3.59301 8.02375 8.97538
Si -0.0724176 -0.977435 -5.10175
Si -1.75044 9.66715 -3.04715
Si -1.42374 -2.75102 3.11493
Si 2.10264 5.7852 -3.93552
Si 1.00976 3.73268 -2.09218
Si 6.05291 8.55032 -2.81376
Si 6.81566 9.90709 8.88021
Si 7.45941 -4.11697 6.13628
Si -2.62505 10.1595 1.63573
Si 2.08496 5.63526 -7.14344
Si -4.69611 9.83521 -4.24511
Si 9.3563 3.78342 -7.69792
Si -1.94593 10.3056 4.59895
Si 5.5083 5.36826 0.213203
Si -6.60542 7.36156 8.7187
Si -6.50066 9.91581 4.87746
Si -4.79045 -8.57768 -2.53737
Si -8.14271 -1.89796 1.41866
Si -3.95045 0.24957 -3.32652
Si -4.42239 5.36917 1.88389
Si -7.3459 -2.238 -4.86532
Si 0.487769 10.4581 -6.85423
Si -7.04946 -9.64281 2.29587
Si -1.15322 5.1817 -0.447782
Si -9.85534 -9.41461 -7.64369
Si -9.49363 -0.274313 -7.57016
Si 4.50359 10.1815 1.37844
Si -6.50533 -3.22114 -2.15763
Si -0.460947 -5.69954 2.51003
Si 3.55259 -1.19101 3.8533
Si 0.233492 8.33058 6.12629
Si 8.57361 -7.8862 -6.99071
Si 9.95182 1.63969 4.04637
Si 0.825919 -6.84919 11.4272
Si -4.94556 -5.58708 -3.27559
Si 7.99343 6.4993 -7.95995
Si -10.4903 -6.12638 2.52581
Si -5.20285 2.38332 -6.83139
Si -5.39623 0.219839 -9.14595
Si 7.71588 -7.62394 2.50621
Si 9.28259 8.7053 1.97236
Si -9.26577 6.78993 2.55108
Si -4.60621 10.2922 -7.36763
Si -0.438241 7.42993 -7.34435
Si 1.19188 -7.3091 7.14256
Si 1.9465 8.4966 0.355274
Si -2.87919 2.76512 -4.93651
Si 4.99477 6.58484 -7.25182
Si 5.8707 9.23056 -5.68905
Si -4.08283 -4.20116 3.02861
Si 1.87027 -0.174886 6.36556
Si 1.41744 -5.67325 -5.68424
Si -7.79258 8.72169 0.637357
Si 8.16319 6.98101 -0.104095
Si -7.38286 8.67463 -4.59013
Si -8.62707 0.146615 -3.24042
Si -8.73847 -8.0018 4.30585
Si 2.40587 -6.10837 2.8659
Si 6.24285 -7.8422 -3.33556
Si 5.04561 3.91973 -5.45545
Si -5.22266 7.52919 -0.246358
Si -1.76684 1.45132 2.20304
Si 2.17765 -2.79155 7.87929
Si -5.78832 5.07304 -8.36701
Si -3.39252 -10.4709 7.29058
Si 2.38081 2.58711 -6.57992
Si 1.5879 -8.66359 -1.39927
Si 1.15583 -9.40354 9.5859
Si -3.04352 5.80779 6.88481
Si -0.731421 7.03688 -4.18963
Si -3.10256 -5.95714 0.801654
Si 9.73526 9.84853 8.90848
Si -9.66362 5.90545 5.50576
Si 8.22747 -9.69026 6.72187
Si -4.21813 3.08952 6.37287
Si 10.4203 -2.99591 6.45042
Si -0.28073 -0.79419 0.872382
Si -6.12392 -9.28267 7.48338
Si -2.16504 -8.76079 -6.99213
Si -9.3375 8.00777 -2.05185
Si 3.56718 3.97245 3.9782
Si -6.22556 4.46455 4.33198
Si -9.68953 4.53337 -5.44657
Si -2.21741 -4.68961 -1.92668
Si 1.98655 -10.3205 -4.08172
Si 1.82649 -0.42424 -7.40995
Si 2.74297 -8.52875 -6.38955
Si 6.57953 -2.24357 3.7381
Si 0.413728 -9.97278 1.16145
O -4.50989 -9.38096 7.68601
O 2.14934 -1.23949 7.57706
O -9.266 -7.26175 -1.48395
O 0.852776 -8.94655 -0.0524591
O 8.17216 -4.9723 -4.69646
O -8.66125 -0.240584 5.71329
O -2.16222 6.37612 -3.9139
O -0.616513 -6.7878 3.71894
O 4.94487 3.9957 -3.83188
O 2.25664 -5.10717 4.20092
O -4.29935 8.7838 -7.85154
O 8.96957 -10.1732 -0.833863
O -0.811313 5.01768 1.14333
O -10.4292 -2.91861 4.81832
O 9.89129 8.27782 8.63696
O 2.94024 -0.374261 5.13757
O -3.96387 9.10488 7.8502
O 7.98168 -0.524001 1.25417
O -8.76587 4.02378 -1.25486
O -3.75738 -7.41832 0.760523
O 8.07672 -8.12474 6.54087
O -5.04004 -0.611182 1.74687
O -2.84081 2.54461 5.6468
O -6.23374 5.89544 5.1127
O 9.01225 -3.77866 6.57024
O 2.18227 8.30664 -1.26542
O -6.3734 -3.03497 7.75371
O 0.453193 -5.81326 10.3109
O 6.06176 -3.64837 -3.64249
O 3.71677 -9.84061 2.43422
O -7.22512 2.01419 -0.965631
O -1.24747 -4.40889 8.68734
O 1.36397 -9.72368 -2.63091
O -8.37644 -9.01439 -8.31164
O -3.28828 1.62853 -3.77818
O 5.78491 -1.23864 -4.52144
O 5.46533 -8.49815 -2.17006
O -5.75747 1.50809 1.9879
O -8.73223 8.49722 -0.660237
O -5.33847 -7.1513 -3.05613
O 8.90429 2.84628 4.20682
O 10.307 -1.41942 6.9071
O -2.67903 9.98076 3.24329
O -1.24047 -2.09453 4.55014
O -1.17772 -9.96476 1.41406
O 8.45669 2.53427 -7.1196
O -3.36483 -9.68498 -7.58371
O -4.66032 1.94829 7.40606
O -3.21951 -8.33685 -2.95268
O 9.14609 7.70682 -8.38068
O 5.6015 -10.3635 -6.35534
O -5.76584 8.52629 4.98766
O 9.21431 -3.63167 -6.81417
O -4.74753 10.1054 -5.78184
O 6.83425 8.4281 8.16503
O 10.0018 5.04715 5.09827
O -6.44409 2.12922 -5.82078
O -3.78261 2.19854 -6.16447
O 4.02833 -4.2701 5.85987
O 6.77933 2.93446 -2.41591
O -3.28451 9.52357 -3.73569
O -8.57434 -1.49117 -8.05451
O -1.41676 -9.94745 -3.55196
O 9.69177 3.40925 0.672531
O 1.77777 -9.68811 -7.22304
O 4.00226 -1.51525 0.16006
O 1.85983 2.94315 -0.888105
O 2.63519 -10.054 9.57068
O 2.90248 5.06092 2.97431
O 9.61011 0.479741 2.93104
O 4.21553 9.04257 4.87702
O -6.03854 -8.73531 1.43719
O -0.902706 -1.78697 2.01951
O 8.75981 -8.54088 -5.51422
O 8.12792 -8.83254 1.53861
O 0.71833 -5.90213 7.80863
O 1.24446 -3.63926 8.86334
O -8.69635 3.43714 8.48735
O 5.73438 -8.17479 -4.88358
O -3.8588 -0.647423 -4.68425
O -7.76763 -0.142775 -1.89177
O -1.93853 -10.3685 7.94454
O -5.45331 1.23844 -7.86019
O -8.13212 7.53476 1.7123
O 7.00962 -10.0775 7.6662
O -2.85792 -0.965253 -7.21387
O -5.13923 7.61326 9.45368
O -8.16994 -3.20878 -1.85543
O -10.4792 -2.00543 -2.20611
O 4.20324 6.00998 0.912585
O -1.98199 7.35542 -7.9555
O 3.44415 6.32717 -7.73655
O -9.79826 1.83236 -0.470018
O -0.939483 8.49683 -3.59318
O 2.05871 -4.21959 -5.94245
O -3.10111 -0.538511 -2.21076
O 10.4255 3.21741 -8.79703
O 9.80015 -2.02952 2.58943
O 10.0551 4.26567 -6.33358
O 1.75536 1.41795 6.52973
O -9.7811 10.2398 9.44744
O 8.54431 5.01103 -8.26958
O 2.68897 9.39005 -3.57203
O 4.73808 8.39657 -1.97212
O 5.13319 -9.84089 0.274921
O 2.38749 1.06463 -7.26575
O -10.3512 10.1192 -8.03259
O 1.16377 -9.63505 2.51078
O 6.95713 -8.29462 -7.22287
O -8.23402 2.88539 1.34513
O 6.4979 3.36934 -5.75387
O -2.4959 4.25546 -0.762467
O -5.8844 -9.83411 -7.9666
O -8.41677 8.28387 -3.31955
O 3.86067 2.90933 -5.97224
O -10.2803 0.103324 -3.29415
O 9.78604 10.1881 1.63388
O -6.20125 7.34585 7.18358
O -4.97041 -5.1522 -4.82978
O -8.09154 2.06421 6.24032
O -3.66649 6.70222 -6.07898
O -6.62938 -6.93974 -8.10009
O 3.68148 -2.68725 -4.45584
O -7.29293 -5.1891 6.6084
O 7.10475 0.817884 -5.52618
O 5.56644 9.34746 -4.10549
O -6.30755 8.65267 0.144991
O -5.42865 4.89475 3.00804
O 6.09009 6.45316 6.44632
O 8.4193 6.79515 -1.6148
O 6.64753 -2.96595 2.30004
O 1.24276 -1.17225 0.618695
O 8.76001 -6.30285 -6.97748
O -5.00538 -6.1528 5.86094
O -3.89063 -0.212311 -9.45857
O -9.15572 6.52486 4.10053
O -7.4123 5.89927 8.80684
O 5.32899 9.23524 2.40844
O 6.32754 -2.61917 -0.335673
O 2.03284 4.41568 -3.10471
O -7.52516 1.15223 3.71885
O -9.49578 -9.32202 -6.10452
O -10.5137 -4.14278 -0.9231
O 6.61256 6.52629 0.124431
O -2.21954 8.77288 9.55174
O 7.69637 -1.08714 3.77428
O 9.28742 3.07252 -1.89725
O -4.29922 2.14324 -0.34173
O 2.4491 2.9842 4.56647
O -7.51598 -7.14953 5.0151
O -0.61057 7.11184 -5.76846
O 2.94077 0.722305 -0.0715419
O 0.434553 -0.520104 -6.58966
O 6.30105 -3.81438 7.21859
O 9.92649 8.55143 -6.23546
O -8.98232 9.93393 7.11597
O 2.73988 -7.23562 6.74195
O 1.31366 2.44253 -5.37718
O -1.98238 -7.2967 -7.61863
O 7.76462 -8.28476 -3.28145
O -4.84041 6.7648 1.15316
O -1.1507 -1.09776 -0.450778
O -3.632 -2.88077 8.22153
O 6.34727 1.61645 1.351
O -2.96015 5.26988 2.50213
O -1.5255 -1.6818 -5.23154
O -4.86214 -2.23813 5.93445
O 8.2254 -0.729052 -3.62255
O -9.90105 -7.07332 3.71636
O -2.80109 -5.2179 -6.31031
O -3.17472 4.31997 -4.87728
O 0.990046 -6.46626 12.8485
O 8.1296 4.90453 -3.36277
O -10.2621 -5.30626 -5.67309
O -1.60093 3.01869 2.48834
O 4.81357 -7.29742 0.0722392
O 5.83776 -4.87896 0.758496
O -5.80543 6.49094 -1.31368
O -7.0152 1.36273 8.34329
O -4.46897 4.39103 0.658479
O -2.01011 0.937855 3.71236
O 10.2379 9.52173 4.99132
O -10.344 6.99586 6.45975
O 3.10278 -8.90267 -1.05705
O 1.10859 -8.38155 8.32331
O -9.3349 -9.1945 5.24677
O 6.37223 6.64931 -8.11388
O 3.14958 6.76873 -3.24794
O 3.766 -3.19306 8.08099
O 10.1991 0.847097 5.4536
O -7.04385 -8.60862 -6.13231
O 10.3537 -7.72859 -3.51794
O -3.82682 7.85616 -0.900359
O 0.250283 2.61793 -2.99055
O -7.76859 10.1432 -5.00162
O 0.41732 -0.697457 5.84104
O 1.13326 -7.24115 -1.95827
O -6.34595 -2.65966 -3.7115
O 5.30518 4.68307 -1.17115
O -7.22157 -2.93669 5.40623
O 0.625724 6.37604 -3.69596
O -8.94847 5.85269 -5.95355
O 4.11559 2.74849 0.752966
O 4.32733 -8.47259 8.16745
O 9.9016 -2.11231 -4.71988
O 9.41658 -10.3552 7.5617
O -0.0172075 0.417305 -4.309
O -7.79586 10.245 1.32077
O 8.88556 7.3721 -4.12002
O -0.582441 0.720224 1.39173
O 10.3045 -1.14886 -7.03575
O -8.73955 0.659172 -6.40664
O -9.77104 -6.2439 1.07249
O -8.73748 -2.59609 2.70766
O -0.889918 -7.38914 -3.6714
O 2.37638 -7.60822 3.36311
O -3.15555 10.3632 5.75309
O 8.54412 1.35599 -0.312483
O -0.0799972 4.68048 -1.4288
O -5.98671 1.34013 -10.2067
O 7.26638 4.99246 4.76753
O 0.111962 -7.59082 6.01801
O 4.64495 3.1254 3.13818
O 3.36588 9.29673 0.68552
O -8.25869 2.50381 -9.8778
O 6.2106 -0.133805 -0.589678
O -1.3292 -9.25241 4.55341
O -9.1664 -2.11961 0.244949
O -5.57986 0.0731626 -0.257921
O -1.90455 0.102844 6.06813
O -9.649 5.40714 1.79637
O 1.18478 -5.81041 -4.10047
O 9.80224 -8.54698 -7.81704
O -2.7848 -5.38563 -0.628332
O -6.82696 -2.01078 -6.3338
O -3.71404 -1.87889 0.00355139
O 9.40198 -6.3635 -0.659507
O 8.49288 6.41573 7.70394
O 3.58572 10.3267 7.24856
O 4.77664 -1.80151 -2.22092
O 1.80575 -3.38867 6.34564
O 8.99466 4.88194 2.78544
O -7.18909 -9.84861 8.55129
O -0.871475 9.2311 5.13185
O -7.70515 -0.36432 1.74389
O 8.31446 -4.1958 0.430629
O -1.59272 -6.04041 1.45132
O 2.19632 5.70754 -5.55278
O -9.72693 2.3165 3.48349
O -5.17055 -0.739807 8.19935
O -0.740508 -5.29736 -2.32943
O -8.12136 -8.74916 3.03899
O -2.99803 6.74119 8.21867
O 5.18705 -1.3177 3.87079
O -2.66651 -2.61069 -9.17679
O 0.71581 6.38741 -7.69779
O 4.24001 -8.37137 -6.96107
O 8.48774 2.59504 -4.43325
O -1.47952 6.75767 -0.706798
O -9.19935 -3.40919 7.00706
O 5.71421 7.05269 4.10147
O 4.51191 4.82937 5.01449
O -5.34199 -3.57474 3.75957
O 6.27501 -6.98977 2.0283
O -1.40912 -2.38259 7.0368
O 1.05482 -5.79062 2.03519
O 7.4301 -7.70888 4.12213
O 3.11116 -0.56945 2.38846
O -6.24994 0.45719 6.18026
O 0.829229 4.21183 5.96258
O 1.40228 -0.831693 -8.9505
O 4.22937 2.5025 -1.77696
O 7.30459 -5.64711 5.77409
O -8.17562 1.48722 -3.94213
O 7.45064 9.01239 -5.58189
O -2.48321 -8.55521 -5.43232
O 0.905693 9.57719 0.70541
O -6.5168 -7.77675 7.24265
O -8.63986 -5.99838 -3.90016
O -8.35582 -3.57475 -5.02548
O 3.54208 7.54036 2.96939
O -2.93207 -3.05192 2.7991
O 4.52339 -5.81371 7.79078
O -2.47445 -7.09692 5.55944
O -6.19315 -1.15862 -8.83299
O -1.59294 5.42108 6.35899
O 8.99462 -6.65721 2.3986
O 5.00502 5.30108 -6.27662
O 8.02053 -4.54626 -2.16041
O 6.95528 -3.26071 4.81469
O 0.92842 10.1162 -5.23741
O 6.61762 7.12382 -3.35042
O 8.10359 6.78497 -6.40823
O 7.84032 -1.58701 -6.01989
O -3.38653 -5.17844 -2.98601
O -0.743295 -9.56246 -6.97255
O -0.242634 2.06255 5.20795
O 9.09525 5.87501 0.533294
O -8.73441 5.13845 6.57466
O -3.81137 4.43126 7.10193
O -5.14042 -9.9022 -3.30348
O -4.5083 6.11119 -8.44212
O -7.2204 -3.81269 -8.25105
O -5.43295 0.653374 -2.73437
O -5.18635 -5.01859 -7.3443
O -5.8307 -4.63853 -2.21357
O 8.03649 -10.497 5.34748
O 6.14048 4.16327 1.18526
O -7.65094 8.57931 8.93749
O 0.934949 -8.27882 10.7774
O -1.20029 -0.636006 -9.18278
O -4.9912 -8.73035 -1.00674
O -2.23137 8.73493 0.963188
O 1.72847 8.89643 5.96708
O -1.822 9.38868 -1.46044
O -6.60434 -2.30787 0.993274
O -1.31209 2.62026 -5.04824
O 5.11865 8.00085 -6.39376
O -5.43817 3.89794 -7.3151
O -3.78979 -10.0419 1.00862
O 0.0677231 10.4123 9.52601
O -1.3877 -4.77756 -8.46979
O -8.75939 3.22717 -5.77193
O -0.141052 -5.74454 -6.30392
O -3.8624 -2.95862 -5.98624
O -9.59542 0.959028 7.79224
O -8.1101 9.66691 4.84942
O -9.24555 7.62529 -7.87422
O -7.49486 3.67516 3.82501
O 2.70807 -9.16241 -4.94318
O 5.47912 -7.46152 6.07421
O 1.10834 -2.04608 -4.65882
O -3.3763 -5.13897 4.1201
O 2.66726 -9.966 4.71051
O -7.25487 5.16531 -2.95933
O 2.06854 3.98012 -7.37817
O 10.4595 7.70508 2.23224
O 0.299284 6.82866 5.67889
O -9.42667 6.39297 -1.96068
O -4.7973 5.95147 -3.80981
O 2.64297 -1.59238 -6.65171
O -0.735906 4.9619 3.99372
O 7.46227 9.25219 -2.27468
O 10.4435 -8.57379 0.446931
O 5.34401 10.2904 9.30919
O 8.01895 8.09977 5.89397
O 8.27477 9.96626 9.62189
O 2.09797 -7.03431 -6.34854
O -0.161 -2.81756 -9.85975
O -5.75437 -2.2357 -1.21669
O 3.77855 -5.91688 2.09741
O -5.87703 8.74333 -4.01342
O -6.24475 -0.990551 3.91103
O -8.33959 -8.60028 -3.75005
O -9.71567 4.63389 -3.86053
O 9.32483 -10.1666 -3.33988
O -2.21901 -3.10987 -1.66151
O -6.17037 4.04738 -9.60761
O -7.45691 7.79535 -5.9262
O 1.91173 7.11376 1.09821
O -7.70326 -5.52451 -6.40839
O -9.83138 0.73069 -8.77136
O -6.15204 -10.3513 3.467
O -0.70547 -4.14794 3.01879
O -4.10429 -4.97043 1.55604
O 0.0598818 8.99241 -7.41894
O -6.27451 -10.1081 6.10744
O -4.90293 4.19765 -1.94649
O -2.84409 -4.74183 6.63093
O 2.91502 -2.63548 4.12138
O 8.46866 8.34803 0.621712
O -7.02272 5.98561 -7.90405
O -10.3099 -4.58001 2.95031
O 6.26098 -6.20608 -3.20062
O -5.31335 3.49836 5.26905
O -10.0363 5.80524 8.66491
O 10.2362 8.87175 -2.0626
O -3.91608 6.67879 5.88029
O -3.12804 1.10312 1.41641
O 8.46405 8.69609 3.33819
O -0.36861 8.59114 7.63251
O -8.10161 -0.991667 -4.2489
