585
Atoms. Timestep: 1790001
Si -1.85264 5.57384 -8.49198
O -1.51527 4.75249 -9.91211
H -0.693779 4.92951 -10.3552
Si 3.22689 -4.19837 -8.73597
O 4.65108 -4.72932 -9.5362
H 4.56723 -5.55977 -9.98987
Si -4.7448 4.66581 10.1875
O -4.68231 5.31126 11.741
H -5.30088 4.90217 12.3348
Si 1.16599 -2.13898 -9.398
O 0.370318 -2.0115 -10.8843
H 0.759887 -2.49908 -11.6005
Si -3.30747 8.34428 -9.06192
O -2.94453 9.1164 -10.5654
H -3.71116 9.40626 -11.0458
Si -6.90087 2.47274 10.3981
O -7.55457 2.82575 11.9399
H -8.02846 2.14396 12.4015
Si 10.1125 4.01773 -7.27435
Si 8.05237 5.45934 -7.72961
Si 9.04995 2.76701 5.53865
Si -9.00927 7.35753 4.3555
Si 4.07767 -2.35393 -6.32819
Si -8.28341 3.63455 -6.21967
Si 0.460135 -3.12236 7.29056
Si 3.62055 9.80695 6.94228
Si 2.03351 -1.00317 0.854215
Si 4.10272 -8.66655 -3.86736
Si 8.5557 -4.63513 -0.410097
Si 0.948769 0.0545093 4.75003
Si 0.292841 -0.199204 7.97974
Si -0.721637 0.063203 -5.74384
Si -6.29423 4.14803 -8.45726
Si 0.901635 3.67683 0.746813
Si -7.00081 -6.1533 3.05491
Si -7.09041 2.55106 -3.66671
Si -5.5483 0.543097 6.6106
Si 9.49144 4.08129 -2.0084
Si -3.92846 -4.78759 7.64728
Si 10.4258 10.2685 -5.50701
Si 2.36551 -8.5576 2.64348
Si -3.99504 -3.30697 3.70778
Si -2.40906 2.41616 -4.44324
Si -0.471698 -9.96653 1.75386
Si -2.43454 5.19443 8.22545
Si -3.81738 -1.48155 -3.55093
Si 2.08073 7.51386 -5.0469
Si 4.14282 -8.3369 7.66123
Si -2.17214 10.3119 -6.75049
Si 0.523736 1.06804 -0.89127
Si -2.50231 0.41014 7.16622
Si -6.13311 -6.59466 6.10429
Si 5.55419 -3.44022 4.02328
Si -9.12466 8.18917 -8.49296
Si 9.44026 -9.29599 1.32967
Si 7.03124 2.54571 -3.04755
Si 7.18425 10.0465 2.90292
Si -5.28453 8.43518 1.07628
Si -6.28006 8.92997 4.09571
Si -0.482656 -8.16418 -3.96907
Si 4.61973 5.69011 -5.08687
Si 7.17502 -2.8077 -6.38398
Si -2.32203 -2.49524 6.0473
Si -6.69594 -4.8756 -3.37755
Si 9.83007 -4.0371 6.53064
Si 9.2005 -2.0664 -2.11469
Si 2.66589 2.94079 -7.77262
Si 2.30623 2.18847 -3.06758
Si -0.977336 -5.8068 7.9034
Si 8.18056 -5.72224 -5.45601
Si 4.90839 -9.45783 -0.963709
Si -8.54915 -8.78662 2.50648
Si 0.223823 2.9795 3.74146
Si -6.46464 -2.15847 5.34265
Si -4.3513 8.80569 6.41248
Si -8.97343 3.37893 8.17104
Si -7.27639 -1.40563 -7.37143
Si 3.07574 -3.46952 -3.59144
Si -6.12356 -9.56593 0.73284
Si 0.780137 -9.32545 -6.76709
Si -3.95782 -8.04815 -0.682638
Si -9.31967 6.77211 1.30494
Si 4.57738 4.23553 -2.48151
Si -0.27517 -6.96656 5.12687
Si 9.40174 -1.43466 -5.04346
Si -4.74023 -9.97194 -3.0893
Si 1.14868 -7.88809 7.85214
Si -0.870803 -3.85286 -1.64972
Si 9.72031 -2.81045 -7.85249
Si -2.44193 8.98943 -3.8309
Si -5.58767 -2.95824 -1.34221
Si -0.363744 8.00033 2.51924
Si 6.60036 -0.495489 3.57982
Si 8.57043 -2.36032 4.18883
Si -0.288937 7.29833 7.99643
Si -6.23324 7.19869 -8.90759
Si 3.60982 0.751286 -5.60717
Si -9.94612 -0.303934 -8.51755
Si -2.53226 -8.57713 3.67558
Si 0.720972 5.33983 -6.64284
Si 6.6664 -8.33621 -5.52298
Si -2.64392 6.48855 0.881385
Si 2.74127 -4.03602 5.12145
Si 4.50754 5.54206 2.92335
Si 10.0857 -4.04351 2.18891
Si 6.50862 1.88582 -6.00039
Si -6.54223 -3.24794 8.40555
Si -4.27869 6.59391 -3.61724
Si -3.04798 -1.17204 1.73503
Si 5.28116 4.24365 -7.71706
Si 3.84632 2.81739 1.5602
Si 8.36048 2.82002 2.63084
Si 1.66852 2.41564 8.18767
Si 9.30509 7.49468 5.97394
Si -3.38054 -8.2682 -5.32419
Si 10.0004 -6.87792 7.48928
Si 2.73095 9.26612 -0.755903
Si 8.52796 -9.59825 -3.30742
Si 4.90578 7.11313 7.51395
Si 8.38483 10.2445 5.77476
Si -9.60438 0.298474 7.71872
Si -6.41991 6.83975 -1.37215
Si -5.68448 0.24716 -5.34905
Si 4.50497 2.55883 7.03466
Si 9.12288 -6.80903 2.90542
Si -10.2443 -5.52638 -7.12233
Si -4.31546 3.66049 -2.61741
Si 8.91696 8.56028 -7.73162
Si 6.49348 4.75582 7.70988
Si -7.48527 4.93343 5.7218
Si -6.41513 7.55928 -5.74912
Si 9.73557 -0.019883 2.5496
Si -9.2948 6.37993 -5.90129
Si 6.59781 -0.192395 -1.7542
Si 9.30636 1.16193 -6.30624
Si -10.3946 -8.72588 4.95144
Si -3.3611 -2.89633 -6.27531
Si 6.95227 0.798851 6.40747
Si 0.839057 0.622199 -8.29052
Si -3.53279 3.18554 -7.33695
Si 8.89825 5.30662 0.863288
Si 5.66043 -4.42308 0.963276
Si -4.91186 -5.58978 -5.6171
Si -7.0039 -1.08994 0.814833
Si 1.96582 -6.37144 -4.13236
Si -1.24858 8.56187 5.57052
Si -9.24677 -8.18434 -6.48874
Si 7.24173 -8.13012 7.13323
Si 7.75169 10.299 -0.765427
Si 3.64445 -7.00868 4.90125
Si 2.74556 7.885 2.06996
Si -7.98263 -3.09449 2.96897
Si -7.09148 -0.331486 9.19163
Si 3.60086 0.167232 3.33447
Si 0.951949 -5.87836 -0.0753262
Si 6.32505 9.80676 -6.75988
Si 3.31084 10.1762 -6.10759
Si 0.0288123 4.20197 -3.74211
Si 8.93418 -1.3198 7.08618
Si 0.528693 10.0671 7.34643
Si -7.47122 -4.26513 -6.19013
Si 6.49036 6.23388 5.13077
Si -8.59298 -5.2838 7.68673
Si -5.10694 -9.53927 5.41004
Si 0.294024 -2.68316 -4.32867
Si 3.80498 -6.90551 0.31803
Si 4.27832 -2.2584 -1.04652
Si -1.92885 -0.95288 -1.09162
Si 0.763003 -4.90929 2.93348
Si -0.951932 3.01449 6.43452
Si 7.00162 7.81153 0.71788
Si -3.98136 -6.09427 2.37788
Si -8.80969 -7.25348 -3.39583
Si -8.99992 2.44835 -1.25743
Si -9.44732 0.752048 4.77432
Si 2.75272 4.34748 5.10355
Si -3.53878 -5.18645 -0.581301
Si -4.63583 -0.585945 -7.98614
Si 9.22582 -6.66389 -2.62539
Si -6.80798 2.36786 4.43147
Si -0.333917 5.94819 -1.03432
Si -9.09273 8.24894 -1.58602
Si 6.28462 1.18782 0.991267
Si 0.392773 8.56619 -2.44885
Si 6.77045 7.84799 -4.19806
Si -2.09248 0.546232 -8.38397
Si -7.37017 4.59802 0.361176
Si -0.360513 -3.79446 -7.09617
Si 1.36617 -6.32773 -7.34684
Si -8.59177 2.3309 -8.69259
Si -5.17985 6.20736 7.62333
Si -0.810325 -8.48339 -0.860224
Si -10.0021 -0.371642 -0.160204
Si -0.217139 -2.04613 2.8097
Si 6.56113 -6.2425 4.61604
Si 4.17767 10.0203 3.78194
Si -7.97605 10.0667 -6.39275
Si -7.68082 -9.98162 -2.0092
Si 4.9926 7.34165 -1.62425
Si 9.77842 6.85265 -3.48129
Si 2.14557 5.45 7.82545
Si -5.0209 1.17526 2.00998
Si 9.52583 4.8653 7.56831
Si -4.39228 3.88292 0.692564
O 9.11539 4.56361 -8.56039
O 6.78437 -2.24093 4.09673
O -5.38951 10.0217 0.723863
O 1.72496 4.18811 -7.18416
O 2.4344 3.26452 0.927952
O -8.23078 1.63335 4.38869
O 1.85975 -6.3107 -5.74574
O 0.95102 -1.82963 1.62386
O 5.50506 -3.89493 2.45389
O 5.92909 6.53118 -4.83425
O -0.266073 9.4681 1.925
O -3.46758 -0.155923 -8.95914
O -6.57984 -4.06362 -2.04206
O 8.85226 4.8555 -6.52607
O 7.9516 6.91564 5.26902
O -3.17307 -2.41213 -4.70719
O -6.24022 7.14741 -7.27616
O 2.61238 -7.47869 3.76272
O 5.86826 5.91851 3.67892
O -2.86295 -0.836612 0.135598
O -7.77358 -4.28249 8.65598
O 4.84996 1.85065 0.722378
O -0.836702 0.270251 -1.12078
O 7.44172 -4.25187 -5.71133
O -9.07212 -7.52664 -4.98917
O -2.74907 8.67453 6.07934
O 3.92763 -8.00475 6.10699
O -1.46531 1.17351 -4.82474
O -6.16839 -0.914595 -8.39909
O -9.1574 0.0227732 6.16599
O 7.49985 -9.03085 -4.39805
O -9.4824 1.88757 7.85008
O -9.89199 1.14505 -0.698636
O -10.4461 7.69035 4.99458
O 9.77756 -7.88032 3.87735
O 7.47691 -0.57449 7.07176
O 3.69473 10.4942 -0.592936
O 4.5322 5.11124 -6.58238
O 2.44592 8.60671 0.683652
O 0.0302697 -6.89303 8.4712
O -2.6076 -0.899576 6.23783
O 9.31336 -5.51567 6.97776
O -9.99445 -0.0704035 3.52109
O -4.55234 -0.40233 -4.42981
O -1.03253 9.11138 -3.0401
O 1.05181 1.05804 8.76656
O -9.52426 4.72837 -6.28325
O -8.68412 9.82348 -1.74406
O 5.23289 0.952988 -5.60417
O -7.94033 3.41262 -4.6351
O -6.35929 -10.2815 -2.91442
O -6.62751 -6.24691 4.60225
O 8.41605 7.04389 -7.65798
O 4.56488 4.42988 -4.08347
O -4.28469 -4.18702 -6.05038
O 2.19028 -10.0633 -6.971
O 8.80394 8.90682 6.55803
O -7.13093 -9.32338 1.99455
O 9.03725 4.64807 -0.577653
O -7.81214 7.6429 -9.27919
O -3.31546 -5.63889 0.936849
O -6.04773 -10.4987 4.44748
O 4.69183 -5.75023 0.812844
O 0.186777 7.37999 -1.41365
O 1.00938 -7.88654 -7.45326
O -6.1329 7.63971 -0.0169756
O 6.88323 8.65357 2.10153
O -2.76407 4.60053 -7.57807
O -7.66273 7.5672 -2.09438
O -8.22423 3.26439 0.00605328
O 1.29009 3.21949 -3.68151
O -0.0917974 5.14691 -2.4788
O -6.23612 -1.87417 -0.339799
O -0.588626 -10.223 -7.07187
O 10.4349 -1.29751 -1.33175
O 3.2664 -5.58608 5.45802
O -1.18507 -2.41546 -0.953428
O -7.28742 -2.99814 -7.0418
O 6.21113 -4.68148 4.82106
O -6.4852 0.250239 7.84611
O 8.90582 -10.029 -0.025431
O -9.95612 -9.23941 1.68266
O -9.65997 3.54153 -8.31277
O -7.80252 -2.42241 4.46774
O 3.25728 6.494 -4.70164
O -1.87911 1.77902 6.57798
O 5.98139 6.18589 8.17684
O 8.72887 4.19993 1.98361
O -3.84939 -2.48931 2.28898
O 0.00262073 -7.17909 -0.422282
O -7.73835 8.39494 4.461
O -1.44763 3.502 -3.81575
O -2.98289 -9.32462 -6.54126
O -2.24784 9.61864 -5.28209
O -0.609415 0.580811 -8.94552
O 3.53097 -0.83533 -6.04425
O 2.3155 -3.22198 -9.63049
O 0.199727 -5.95185 3.96378
O -8.66353 -0.298326 8.86182
O -3.86927 0.0938155 2.33618
O -9.21413 1.02336 -9.25308
O -6.81291 0.859106 10.2304
O 6.27846 -10.0571 -0.489382
O 1.90648 5.11042 6.23283
O -0.527706 7.33726 6.43432
O -9.71017 -7.02133 -7.48055
O 3.07243 1.83787 -6.63428
O -9.10468 9.79524 -5.20778
O -9.51234 -4.3786 6.7367
O 2.66432 8.89965 -5.49867
O 3.51916 5.37678 4.17383
O -4.04271 -6.9396 -5.88265
O 3.86531 3.3842 5.77189
O -4.26423 2.38429 1.30342
O 3.63426 8.25462 -1.64583
O 1.74939 -2.56502 -3.6995
O 3.72963 6.6058 2.00688
O 0.781898 -8.9889 2.3621
O 0.34241 -1.18612 4.01819
O -2.17303 -4.76717 -1.32816
O 2.97219 -0.501637 1.99492
O 3.9806 -9.8923 7.73526
O 6.42802 -0.0167397 2.02899
O 3.08205 -9.83567 3.27704
O 5.46233 7.18582 5.95753
O -1.28043 -8.05946 4.52593
O -3.7035 -9.24141 4.63567
O -7.41712 -6.16728 6.97755
O 7.08624 2.2665 1.87275
O -2.86865 9.36273 -7.81271
O 0.503625 0.614614 -6.68528
O -5.1095 8.35689 5.04599
O 0.94726 -5.52087 1.484
O -10.3511 7.73489 -2.41042
O -7.84332 6.86155 -5.31194
O -1.57754 6.47114 8.60543
O 4.13421 -3.28003 4.68667
O -5.77473 -0.773193 5.59095
O -7.12766 -9.51241 -0.556935
O -8.4254 -8.65493 -2.6678
O 9.63801 0.148477 -5.02633
O 9.54366 9.279 -6.39303
O 1.63491 3.57513 4.22176
O 8.29285 7.48691 -3.7696
O 0.66285 -1.72255 8.18489
O 1.74309 -3.46213 6.32818
O -8.40735 6.06496 5.13401
O -1.89461 6.21235 -0.571848
O -4.96941 3.362 -7.94682
O 1.42389 1.21095 -2.24818
O -4.89302 -2.26974 -2.62352
O 10.0109 0.396408 -7.53912
O 8.49976 -0.772184 3.30029
O -8.15907 -7.20354 2.57963
O 7.76186 1.14505 -6.61683
O 9.76653 -9.952 5.44753
O -2.61529 2.05863 -8.15083
O 0.908058 -7.63687 6.17202
O 8.86337 -3.17484 2.79926
O 8.9457 -8.25697 -2.59281
O 0.209622 3.34303 2.2073
O 1.4112 9.48572 -1.64483
O -5.31175 -5.49153 -4.02639
O 4.12736 9.92802 5.38142
O 7.11959 -7.10918 5.86984
O 9.58968 4.04691 6.21517
O -7.48925 -4.59638 2.79386
O 9.65136 -10.3187 -4.17571
O -1.56748 -1.33075 2.26388
O 6.92227 0.495259 4.77211
O -6.03363 1.81058 5.70941
O 4.692 9.76895 -6.80251
O 8.11247 1.93791 6.49256
O -6.41786 1.45107 -4.61429
O -7.86473 3.06671 9.27526
O 3.17425 2.09306 7.81702
O 10.2723 -1.69859 -8.8979
O -0.826205 3.4091 4.84503
O -5.87331 1.90293 3.23223
O -5.65559 -8.16992 6.01853
O -3.19586 -3.48657 6.94236
O -0.669163 -8.72498 -2.45451
O 2.90056 -7.61939 -3.59733
O 0.0658214 -5.37457 -7.49047
O -5.19206 6.92775 -2.34841
O -6.99174 3.9235 4.5925
O 10.3045 8.58276 -8.72756
O 5.74331 -8.00292 7.82447
O 5.94908 7.86911 -2.78948
O 5.51026 1.38668 6.68946
O -5.52782 3.24818 10.2564
O 4.25735 8.54024 7.78323
O 0.14167 4.86759 -5.22664
O 8.86405 -5.96968 -1.25143
O 10.0067 -0.424341 1.12706
O 7.14004 -4.71318 0.396529
O -6.78563 9.16011 -5.84208
O -3.16474 2.74816 -5.80681
O -6.11209 0.290989 1.2254
O 7.76797 8.75685 -0.27211
O -7.01239 5.40599 -0.990542
O 0.341902 -4.72069 -0.994731
O -0.150789 -4.42622 7.99437
O 9.94187 2.63874 -6.48946
O 10.2333 6.07953 1.20557
O 0.370919 2.54573 -0.386956
O -0.57789 -3.40293 -3.1646
O -4.87374 0.490747 -6.73669
O -2.70636 -1.01704 -2.46447
O -9.56557 -3.23324 2.62863
O -5.83739 3.41249 -3.07677
O -2.52186 6.97865 -8.85489
O -9.0801 -9.14443 4.01727
O -1.72352 -0.191025 -6.96564
O 10.0226 -5.49721 2.78042
O -9.26514 7.36931 2.75633
O 2.71057 -7.73991 8.29184
O -2.38934 -8.26321 -0.526767
O 0.526113 0.0130761 6.35007
O -7.98375 2.07992 -2.44979
O -8.02145 -9.31682 -6.61504
O 3.06172 -7.9254 1.362
O -8.9466 -4.85339 -6.4118
O 4.83623 -9.31198 -2.62266
O 3.61584 -9.90853 -4.77224
O -1.88449 -3.30937 -6.87327
O 9.98208 -2.24464 -6.29009
O 6.50431 -9.55799 -6.60148
O 5.60254 -10.5004 3.12963
O -0.499626 5.57174 -7.65856
O 7.30459 -6.9643 -5.9846
O -4.53758 -3.88749 -0.651358
O -4.39435 -9.1957 -1.72027
O -4.88286 8.05912 -9.22454
O -4.91822 -8.51592 0.579597
O -4.41087 -9.01685 -4.35086
O -1.44649 4.17571 7.44796
O 1.12737 6.55988 8.32638
O 6.69486 9.0251 -5.38233
O 1.39753 0.261754 0.123805
O 9.69845 -2.1285 -3.65357
O -2.69669 -2.80403 4.51173
O 9.56574 -5.76503 -6.17029
O -8.7167 -0.889957 -7.71073
O 0.626846 -9.44671 7.99918
O 9.73762 6.40691 7.12457
O 2.93597 -1.80128 -0.227127
O -9.34374 7.06781 -7.31247
O -5.49887 5.66737 9.11817
O -0.163355 8.90448 8.29462
O 9.96739 -0.403987 7.77678
O -10.3579 -7.69139 6.23424
O -8.51938 -0.776813 0.381113
O 3.62759 6.03084 7.75581
O 5.28903 -1.06807 -1.47762
O 0.45432 5.07116 0.0982733
O -3.54968 2.43851 -3.279
O -10.2623 4.27516 8.47753
O 3.0977 1.2765 -4.18469
O -2.56064 -5.52478 8.22177
O -4.82846 -5.75824 6.66213
O 6.12016 3.03748 -6.95972
O 0.576767 2.6303 6.95609
O 4.65679 5.73056 -1.84041
O -3.67547 5.6568 7.31383
O -8.27235 2.19263 -6.98491
O 4.52914 4.11916 2.12247
O 7.66219 6.38991 0.875488
O 10.3162 1.80688 5.15358
O 6.87376 0.562494 -0.33787
O 3.63109 1.74491 2.84405
O -4.10777 0.671506 7.28832
O 2.02569 9.64521 6.90897
O -3.7914 7.67682 0.903346
O 5.12492 -3.20773 0.0487027
O 1.6221 -0.743545 -8.75761
O -0.272722 -1.19233 -4.95421
O 3.62663 8.74018 3.08827
O -6.27824 5.59028 6.60563
O 4.91788 -0.578411 3.80882
O 0.331405 1.37685 3.98878
O 8.39329 -6.04862 -3.86768
O 4.02919 3.6 -8.40491
O 0.328031 -2.9105 -8.23001
O -5.09042 -4.04909 8.52346
O 9.06178 -1.45292 5.49305
O -3.71886 9.83465 -3.20638
O 1.21169 7.50746 2.66823
O 4.71973 -7.90849 -0.557979
O 7.66427 9.85276 4.45617
O 7.69023 -6.42719 3.47356
O -3.32974 4.61484 9.44967
O -1.39464 7.06071 1.75342
O -7.59565 -6.23326 -3.22222
O 1.72503 2.00638 -8.70095
O 2.469 -6.28797 -0.446313
O -8.50109 9.41415 -7.70582
O 3.45348 -3.26841 -7.4645
O 2.02053 -4.21123 3.69225
O 5.69584 -2.3966 -6.59176
O 7.4954 -9.71388 6.63509
O -6.05925 5.6002 -9.16912
O 1.28767 6.79853 -6.23529
O -3.873 -4.86565 3.43511
O 6.51508 5.28319 -8.14775
O -1.08072 -6.09828 6.29967
O 8.64667 -7.6627 7.91206
O -6.53747 -1.84196 9.23807
O -0.43165 -9.66537 0.160204
O 5.13022 -6.83086 4.20522
O 10.294 -4.30719 -8.05745
O -4.2351 -6.54681 -1.1243
O 6.96831 2.60637 -4.68394
O 3.37119 3.20132 -2.29444
O -0.285636 -3.6308 2.90472
O 8.43204 2.94908 -2.51376
O -3.15864 -7.3165 2.9363
O 2.48916 0.0886634 4.5838
O -4.18552 -1.91183 -7.18285
O 8.12543 -2.80478 -7.71336
O -4.7573 10.3738 6.54014
O -0.977999 8.10858 4.05384
O -5.92707 8.39477 2.56977
O -4.28022 3.71305 -0.961155
O 0.374649 -8.94807 -5.14341
O 1.13554 7.87127 -3.75789
O 8.71975 -3.452 -1.44937
O -7.1928 4.38564 -7.13167
O -5.25507 7.00162 -4.83815
O 7.48823 9.29619 -7.82097
O -2.9569 7.4658 -3.87166
O -10.0047 3.50316 -1.79572
O -8.17718 5.66189 1.24613
O 0.284041 -3.58176 -5.66459
O 3.83401 -3.09923 -2.27873
O -3.36554 5.05292 1.15877
O -1.84401 -9.52766 2.54933
O -6.38842 -5.47643 -6.3026
O 5.9798 3.49193 -2.26732
O 3.90622 -3.13185 -4.91881
O -0.498223 9.90371 6.06395
O 8.35021 -10.0538 2.31701
O -3.89117 5.05361 -3.31226
O 9.60134 5.38412 -2.90859
O -6.60709 -2.78105 6.83518
O -6.77524 -0.787334 -5.93421
O -9.31084 7.78198 -0.00175097
O 9.00434 -7.68403 1.53203
O 5.43228 3.55769 7.91207
O -10.3586 -9.34878 -6.32308
O 9.32937 1.53326 2.38869
O -0.799267 -2.82389 6.33499
O -5.97679 4.28618 1.00654
O 7.81757 -1.67326 -5.35937
O -1.33709 0.102901 8.21937
O -9.79015 -6.28725 8.34792
O -4.99775 7.81938 7.51909
O 7.87364 10.3706 -2.32222
O 2.48005 -5.51171 -8.22705
O -10.2246 -6.65238 -2.89784
O 9.74162 -4.31379 0.666287
O 9.27727 -2.85089 7.46244
O -7.24802 -3.88333 -4.61118
O -7.26568 3.016 -9.24381
O 6.59447 1.01931 -2.75098
O -8.19965 4.05364 6.93157
O 6.43635 4.95094 6.07239
O -5.32576 -2.93168 4.46842
O 9.24155 -3.66026 5.08024
O -1.97166 -7.94426 -4.49792
O 7.8673 -1.09742 -2.0607
O -5.60566 -6.2508 2.27048
O 5.25925 -8.06784 -4.84509
O 5.61919 7.58982 -0.137488
O 2.50068 -4.97037 -3.60422
O 1.94372 3.99947 8.57628
O -7.10155 -2.07438 2.04813
O 0.433128 -6.83637 -3.79485
O 8.24725 3.07355 4.19343
O 8.01944 4.61227 8.1222
O -10.3355 6.68798 -4.7955
