582
Atoms. Timestep: 1790001
Si 4.39861 -6.97802 9.2967
O 4.77829 -7.51267 10.8743
H 4.10682 -7.51032 11.5463
Si 1.07603 5.22717 -9.99773
O 0.263113 5.57838 -11.4456
H -0.664307 5.74585 -11.3259
Si 4.07032 6.16183 -9.89376
O 4.75571 6.35221 -11.4374
H 4.1873 6.07428 -12.1461
Si 1.73461 -5.16386 9.69031
O 1.26609 -5.48522 11.2845
H 0.363233 -5.76067 11.3916
Si 4.2795 9.0172 -8.33482
Si 9.63779 1.47609 3.80622
Si 6.82537 0.942365 2.49293
Si 0.664291 2.97867 -8.22736
Si 4.19628 -9.28778 -5.08185
Si 6.16021 -7.21169 0.148185
Si 5.32494 -7.55929 -2.92227
Si -5.91031 -4.17657 1.93554
Si -9.09563 -4.11915 -2.34055
Si -6.11294 -6.26505 4.57751
Si 2.08603 3.46449 4.48755
Si -8.39545 -7.23349 -7.54591
Si 9.28999 3.25225 -1.63563
Si -2.39455 -6.26574 -3.81721
Si -3.99094 -3.46813 -3.33902
Si 4.83312 1.84671 7.85107
Si 2.25942 -6.7001 -5.11598
Si 9.22474 9.61726 5.82064
Si -7.7041 5.75788 8.99196
Si 2.20782 -2.51334 8.16013
Si 6.29899 -4.7833 2.13874
Si 5.52962 -5.20686 5.10556
Si -9.62644 -5.5057 6.569
Si 8.80097 7.91021 -5.64472
Si -3.96962 1.30218 -0.334069
Si -0.466995 7.4245 -8.3228
Si -5.69963 9.7794 5.61159
Si -6.06859 10.0873 -4.72296
Si 10.0307 -2.47059 -6.66717
Si -6.24321 -3.20848 -1.00149
Si -8.51092 8.54835 8.80328
Si 1.60483 4.98029 -0.783589
Si 1.49579 -2.12374 3.20322
Si -6.97168 -7.89997 -4.95892
Si 9.45459 0.169395 -1.66642
Si -0.215161 0.40059 -6.91058
Si 4.38862 1.50808 -1.97589
Si -7.79341 8.68211 -6.97157
Si -8.82051 5.91125 -5.90967
Si 3.63266 -2.57562 -4.70591
Si -5.39427 6.32013 -3.16614
Si 0.583409 -2.35525 -5.92015
Si -9.38785 -0.596166 4.67206
Si 9.91222 -5.67269 -6.98289
Si 2.4864 -8.57392 -1.63746
Si -8.1369 6.15773 3.33093
Si -1.39459 0.739969 4.94031
Si 9.39748 -8.11798 -5.40371
Si 1.30297 -7.58682 2.96517
Si 4.30281 0.548067 -4.96776
Si 7.11701 -7.00985 -7.04806
Si -5.79096 -0.379097 -6.86053
Si -5.54306 -6.26205 -7.12037
Si 5.23292 5.21144 -5.29825
Si -5.22838 6.50786 1.91617
Si -0.433343 -5.37315 -5.85723
Si -0.847062 -9.5839 -6.45545
Si 7.11479 1.3705 -5.36347
Si -8.45043 -3.0248 -5.07849
Si -9.78456 -9.78534 -7.57611
Si -5.5443 -7.01568 -0.49865
Si 2.71591 3.137 -5.92062
Si -7.36695 2.19842 0.386608
Si -5.23089 1.00313 2.36935
Si -5.60032 -1.75584 6.68385
Si -6.65459 -1.57276 3.59291
Si -0.969469 -10.4579 7.11886
Si 9.81051 -2.5838 -0.465292
Si 8.34563 2.59854 -7.94461
Si -7.35611 -0.161073 -4.28001
Si 8.60721 5.11474 0.643926
Si -6.55699 -0.162757 -1.18911
Si -1.45521 -6.32736 2.0025
Si -3.18455 6.85967 -8.42578
Si -3.56351 4.14059 0.579421
Si -8.80338 -7.64236 4.32787
Si -3.10316 2.84245 3.40295
Si -3.16883 2.59457 8.38062
Si 1.66505 0.36793 4.64544
Si 6.28425 9.67104 -2.78285
Si 2.05821 9.38267 -4.54767
Si -2.71732 -2.02397 5.42741
Si 6.28654 4.86396 -8.27921
Si 2.79397 -6.81166 5.45581
Si 10.2447 8.40792 -2.98645
Si 1.96623 9.8529 6.90839
Si -3.22507 8.55655 6.70308
Si 8.63043 6.87239 -8.38879
Si 3.2914 4.93969 1.917
Si -4.64867 2.70637 -4.3948
Si 6.46487 3.40823 -2.96084
Si -2.07999 8.46389 -6.12531
Si -6.14952 6.48146 -8.64409
Si -4.43833 -10.3479 3.03152
Si 5.66068 0.315447 5.36908
Si -10.3437 4.7261 -8.45527
Si -7.98621 2.03566 5.4634
Si 8.01909 7.66808 -1.08864
Si 6.29905 3.89615 2.38999
Si 0.52183 2.17724 -4.3622
Si -9.36781 10.363 4.2934
Si -7.9361 7.8691 5.78191
Si 8.72851 9.90387 -7.84859
Si -1.08234 0.242322 -0.978498
Si 8.33999 -1.34758 -4.23713
Si 10.1193 0.272422 -7.86539
Si -3.46142 8.57491 -3.38539
Si -10.1864 -6.63767 1.84236
Si 10.2549 7.03781 2.53347
Si 5.05374 -5.27409 -5.22227
Si -6.67577 3.64553 -2.25638
Si -1.1511 -1.94262 -3.18379
Si 9.82638 -3.02666 5.42858
Si 9.12874 -7.56949 7.74378
Si -7.22242 -9.90744 7.9495
Si 6.98742 -9.24721 2.53076
Si 7.96398 9.03394 1.75929
Si -8.90889 3.09853 2.77218
Si 9.23727 -3.79217 2.33302
Si -4.54248 -9.83091 -0.0924494
Si -8.36675 -10.018 1.41508
Si -0.835094 -2.11263 1.11184
Si -2.84628 -3.64629 2.67112
Si 1.49717 1.88899 -1.55572
Si 2.26545 6.88127 6.46828
Si -5.6831 -3.4462 -6.07168
Si -5.75094 1.2482 7.55838
Si -7.21301 -6.94286 2.07441
Si -0.387258 -4.10597 -1.13679
Si 2.27816 7.60359 -2.14095
Si 9.39114 6.39894 5.4657
Si -0.0916195 8.25282 2.52441
Si 7.42443 0.253878 7.8159
Si -2.92524 7.95792 3.49195
Si 4.01907 4.59727 6.83868
Si 2.02777 -5.90003 -2.05632
Si 1.37081 9.74845 -7.61466
Si -3.43322 -7.58362 4.05888
Si -5.85628 4.97586 -5.94951
Si 5.95597 -9.68344 -7.65546
Si -3.22063 1.24818 -6.57819
Si -9.54769 4.20138 -3.67562
Si -0.455314 2.08971 7.72532
Si 5.5576 8.19629 -5.42883
Si 4.11914 -3.61872 -1.72046
Si -2.66788 -7.24216 -6.71235
Si 2.05909 0.436247 7.88484
Si 7.03357 -2.86727 -1.81446
Si 2.88322 7.52495 3.5003
Si 0.0904761 -9.57345 -3.5421
Si -2.09932 4.09271 -7.01011
Si -10.3225 -8.68873 -0.491852
Si 3.37874 -3.7935 1.21433
Si -2.63293 -6.11551 -0.914373
Si -0.095254 4.84572 6.11745
Si -9.47051 1.75132 -5.51693
Si -1.94107 -10.4181 -1.50196
Si 6.83024 -5.61147 7.98728
Si -3.17478 4.6938 5.91364
Si 4.31647 -9.05307 6.8618
Si -5.48839 3.80388 9.30013
Si 6.58151 -0.163754 -0.384232
Si 6.82163 4.48978 5.54861
Si 3.00978 -6.82783 0.619668
Si 4.74026 -2.48879 6.19065
Si -8.00413 1.34338 -8.2544
Si 8.93196 2.50862 6.82676
Si 3.96723 9.89433 -0.678816
Si 0.266462 -10.3558 4.3662
Si -5.41526 -7.36399 7.55049
Si -1.93428 4.08208 -3.84799
Si -8.16358 -7.00156 -2.17171
Si 0.140766 -3.22563 5.79353
Si 9.04115 -9.79572 -2.77965
Si -6.73037 -4.5806 7.12324
Si -10.2387 -10.1003 8.31064
Si 7.54882 -2.60989 7.72626
Si 0.225836 -5.95469 7.10072
Si -2.4532 -7.80623 7.09218
Si -0.383265 8.24882 -0.549985
Si 7.3086 -9.03854 5.51061
Si -5.07566 6.24618 7.50243
Si -7.66054 8.42145 -2.70347
Si -6.40185 8.89651 0.0954227
Si 5.00523 9.52063 2.35164
Si -1.39659 5.68611 -1.14046
Si -9.63273 4.29974 6.91016
Si -7.7342 3.97144 -9.89445
O 2.03387 3.32488 -7.34261
O -1.63267 -6.0449 -6.79225
O -7.24354 8.50454 -1.18445
O 3.3307 -10.2987 7.16489
O -7.02013 -0.102517 -2.71613
O -9.53267 5.55654 -4.52242
O 3.93937 4.13835 -5.61519
O -7.28488 -7.24679 3.77002
O -7.03091 7.78916 -8.15438
O -4.13812 1.53515 7.62901
O -7.37713 5.15748 -5.68047
O 9.69637 -4.04723 -7.10795
O -0.795391 9.8051 -0.661352
O -2.92763 -9.63197 -0.511436
O 8.30842 1.25881 3.02158
O 1.35397 3.51485 -1.29486
O 0.403349 6.18113 -8.8496
O 3.51213 -3.18976 -0.242323
O 0.329077 1.39735 -8.05414
O 9.90216 6.52768 4.03449
O 1.72498 9.20953 -6.05687
O 0.25649 1.20696 -5.54772
O -1.08652 -6.8537 7.08438
O 3.64965 -2.82984 -3.07846
O -4.32913 -4.10555 2.11748
O -5.78499 -2.01235 -6.78854
O -2.80426 9.48911 -2.26934
O 4.18041 7.59966 -9.08421
O -5.87227 2.66492 -3.24017
O -9.31208 4.09673 -9.44976
O 10.3701 -6.49349 7.41042
O -6.48881 -2.8884 2.73002
O -8.68678 3.33335 6.10224
O -3.40377 3.48158 -3.605
O -1.84928 7.30716 -9.15734
O -7.00514 3.11783 -0.830782
O -7.81473 -1.67963 -4.55009
O -5.60561 5.73779 -7.29341
O -6.5671 6.15029 2.78794
O -10.4456 2.61516 3.17498
O -10.4899 5.47744 6.23416
O 0.374244 -1.12944 -6.91862
O -5.59294 10.0998 4.04892
O 9.75848 -2.836 1.14093
O -2.92167 2.72631 -7.16054
O -7.05294 5.3357 -9.22283
O 2.01944 -0.97605 8.55477
O 0.9557 -2.79675 7.15753
O -9.77705 9.53127 9.07806
O 6.12229 -5.48241 3.60993
O -5.90342 -0.365746 7.43842
O 3.4817 -2.64771 7.12693
O 6.31084 2.41232 2.00474
O -5.23625 9.82657 -0.529217
O 10.3945 -8.95236 -6.35519
O 10.1001 3.4435 7.36097
O 0.939635 -6.28257 -5.91162
O 0.831816 6.13084 6.40102
O -0.94041 7.51086 -6.7798
O 7.90735 6.21524 -0.362173
O -3.46877 -5.04724 -3.53993
O -5.33778 3.47184 -5.60394
O -2.93123 7.97305 5.14004
O -8.43175 2.04415 -6.76988
O -2.94356 -7.6571 5.53299
O 10.2706 4.14981 -2.52263
O 7.94502 8.75534 0.169252
O -0.0515771 3.65531 7.22267
O 4.81354 -1.00921 5.5589
O -6.83146 -6.74192 -1.37504
O 9.96598 -10.3338 -8.40447
O 6.60093 4.08229 4.02031
O 2.01445 -6.43797 -3.51166
O -4.66354 9.44188 -4.14622
O 9.15649 -2.08971 -5.41343
O -7.48712 2.56022 -9.06956
O 3.2897 6.42781 2.46786
O -2.75604 5.34718 -7.80582
O 6.08851 4.62335 -3.97768
O -9.46677 0.657562 -8.54915
O -9.21781 8.25789 -2.86894
O -0.821978 -10.1427 5.52146
O 9.71553 5.97965 1.45939
O -1.85291 -8.54948 -7.06395
O -3.27578 4.01736 4.45233
O 7.93239 -6.75054 8.37599
O -6.14353 -9.27931 -4.94618
O 0.502458 -5.50002 8.62937
O 7.96077 5.70682 5.56595
O 3.0202 -9.85411 -0.900983
O 0.74287 1.24221 8.34118
O 9.31627 3.8248 -0.0758276
O 5.32853 -6.11711 -3.80664
O -1.78257 -6.5693 0.387167
O 6.75885 -8.37899 1.17543
O 0.863992 3.72677 -9.5781
O -4.24921 9.80717 6.364
O -9.52393 -9.80154 0.332526
O 2.26627 -7.72697 1.67892
O -8.55188 2.68251 1.31079
O 3.45302 1.11966 8.20171
O 2.02359 -6.75433 4.07315
O -6.25851 -1.74855 5.13926
O -6.23223 0.144643 -5.39373
O -9.0258 -6.55638 5.4823
O 7.98695 0.338101 -1.01782
O -0.252125 -9.01635 -5.00868
O 7.88789 -8.07135 -5.98979
O -5.91856 -6.77933 -5.64806
O -6.85276 4.69745 9.86263
O -3.36627 9.4381 3.01141
O 4.88717 8.65765 -6.82136
O 2.9397 -6.22142 9.41264
O -9.64867 -6.18419 -7.59329
O 4.95038 -9.69257 -6.3618
O 6.16676 1.13726 8.38992
O -1.79858 0.482345 -6.73565
O 1.02014 -2.94328 4.46693
O 0.471576 -9.94699 -7.34481
O 8.50501 -6.32802 -7.58308
O -8.7965 0.575681 5.59725
O 9.43061 1.92525 5.34909
O 6.03849 4.99074 -6.65178
O -5.98577 -5.83398 7.84641
O -8.69872 4.65912 3.05287
O 1.52961 3.30624 -4.86115
O -3.99562 -9.05406 3.74735
O -1.54429 7.2566 -0.942301
O -5.13502 5.80462 -4.72126
O 4.8639 4.48714 1.99917
O 6.60512 0.00130498 1.23453
O 8.43413 -3.14807 -1.18687
O -6.67905 -10.3935 6.53555
O 0.701577 -5.24206 -1.50917
O 9.64695 3.6219 -7.93344
O 4.89713 5.12394 -9.0235
O -0.0482996 -4.82363 6.00928
O 6.44355 8.66976 2.25335
O -8.13667 3.93282 -2.90543
O 2.91775 7.03768 4.99588
O -6.36088 -1.66126 -0.74567
O 0.772729 10.0155 -3.8537
O -7.6546 -7.58627 -3.58295
O -5.75727 -0.347227 2.95435
O 1.29523 -8.91831 -2.60128
O -1.65873 5.26819 5.84737
O -0.0382612 -3.85342 -6.28796
O 3.35083 -5.04737 -1.83921
O -8.10909 -7.88768 -6.0274
O 6.23387 -8.07289 -7.82145
O 2.47414 -2.95814 2.25999
O 0.0375239 -6.79393 2.37239
O -4.62765 -6.43944 3.99216
O -10.1172 -3.41689 -1.28801
O 0.801289 7.90297 -1.55776
O 9.97516 -5.21719 2.15285
O -4.05918 7.50273 7.56327
O -6.63413 1.70397 6.2471
O 4.97118 6.79945 -5.11408
O 5.41224 -5.94441 8.6731
O -2.22158 -6.7849 -2.33455
O 5.3146 10.1301 -1.62991
O 7.01907 0.0831422 6.27463
O -6.17955 -4.03834 0.357918
O 7.99005 -10.4398 2.15494
O 4.75882 -3.67251 -5.02266
O 0.219878 -1.84201 2.28637
O -4.98147 -3.35023 -2.04677
O 5.60292 9.24041 -4.12426
O -4.15885 2.91159 -0.301768
O 2.07728 -2.7014 -5.31329
O 7.84002 10.4466 5.63285
O -8.12421 6.54686 4.93233
O -9.53641 5.34301 -7.20643
O 8.52116 -2.66035 6.42898
O 2.37126 6.04251 -1.71282
O -3.02894 3.70469 7.18344
O -7.2804 9.67017 8.79058
O 10.0922 10.1465 4.62137
O -0.912095 1.33518 6.38335
O -8.59092 0.803621 -4.5744
O 0.561368 10.435 7.58643
O -4.86426 -3.16411 -4.75024
O -1.29398 -2.5476 5.91628
O -1.8519 -4.69363 -1.15642
O -6.95821 -6.56993 -7.88752
O -3.74879 1.53209 -5.05017
O 3.98976 -1.04108 -5.09666
O 2.54845 4.11859 3.12806
O 9.464 -9.20546 -1.34953
O 10.4678 0.819738 -6.33574
O -6.63947 9.35523 -6.07031
O 9.98599 10.0063 -3.00644
O 5.632 1.00123 -5.79551
O -4.12534 -6.99231 -7.41361
O -8.2103 7.15316 9.62239
O 7.849 2.1829 -6.5059
O 3.55614 -5.77943 -5.55236
O -3.0542 3.40411 1.87774
O 9.4729 7.76058 -1.77848
O -4.61836 6.85392 -9.18126
O 8.60607 8.46681 -8.61376
O 9.21951 -0.632991 -3.01306
O -4.88679 5.02428 8.50235
O -10.0071 -1.89623 5.40271
O -9.08145 -8.06113 -1.3941
O 2.56681 5.62462 -10.0306
O 7.33897 -10.4281 -7.55747
O 0.795744 -8.94307 3.70394
O -0.447498 -1.99352 -4.66357
O -8.17127 -1.05115 3.69508
O 9.85637 -6.48678 -5.60787
O -6.69247 7.24014 -3.25152
O -4.72684 5.19445 1.14518
O -9.15935 7.10785 2.54997
O 3.20595 -10.4311 -4.44853
O 0.048524 0.145635 4.46812
O 2.07111 1.8395 4.18539
O 5.16709 -3.63494 5.13271
O 6.22689 -7.39698 -1.51663
O 9.14667 9.29166 -6.3539
O 5.58312 -10.0843 2.75945
O -4.03689 3.1381 9.59961
O 10.2509 -7.5887 0.654048
O 3.27793 8.64483 -1.34287
O -7.71973 -8.55114 1.70215
O 0.0723467 5.44503 -0.46221
O 5.3836 4.99386 6.07814
O -5.85713 -7.3619 5.92735
O 7.8008 -1.17709 8.44939
O -1.81489 -9.16661 7.62458
O 6.16978 -5.93773 -6.19108
O 6.93525 2.27454 -4.03879
O 9.50583 7.83561 -4.23637
O -6.28291 -8.62834 8.1623
O -5.29562 -8.56978 -0.758495
O -1.46386 5.15105 -2.69187
O -7.53354 -3.72409 -1.81371
O 9.99247 10.2443 7.08975
O 10.4838 0.0899956 3.8223
O -9.06346 10.3658 2.70956
O 2.22349 -7.14233 -0.781695
O -1.14804 -5.5439 -4.42611
O -9.46324 -2.5891 -6.23333
O 8.63859 1.31049 7.76248
O 4.55858 -7.22063 0.365747
O -6.26405 -3.05113 7.38523
O 7.69437 -0.0485384 -4.91439
O -1.4697 7.5953 2.99243
O 8.9748 6.70087 -6.78935
O -0.266025 -3.38445 0.27489
O -2.51462 -0.428237 5.02062
O 9.88527 1.7449 -1.80479
O -9.93422 3.04966 -4.70048
O -2.2597 -2.53576 1.70757
O -6.24582 1.90821 1.49462
O 9.84457 -8.80357 8.6207
O -8.62516 9.0822 4.92278
O -7.18572 9.70592 -3.61075
O -7.54636 0.661101 -0.192532
O 2.42877 8.09703 -3.71752
O 8.93209 1.15125 -8.47612
O -1.62949 10.0593 -6.26685
O -8.00081 2.32317 3.91343
O 2.92993 -5.32042 1.08121
O -6.8671 0.256107 -7.87502
O -1.72211 2.14758 8.64697
O 5.72043 -3.78794 -1.70464
O 1.30908 7.76598 3.18653
O -1.87533 1.94086 3.96037
O 7.5753 3.30091 6.42017
O 1.27454 1.5936 -3.1101
O 1.95178 0.256101 6.27719
O -2.35121 -7.26617 2.89555
O 3.85064 8.8198 3.22535
O 9.4546 -3.3259 3.91004
O 5.26289 -8.65811 -4.06084
O 7.53069 -4.1477 8.25241
O 6.92191 8.30469 -2.14791
O 8.36555 -8.23105 6.43569
O 10.4964 -4.32812 6.0376
O -8.88431 -9.18421 4.65958
O -2.03588 4.48827 -5.47936
O 4.069 -5.83976 5.39297
O 2.20089 -3.63761 9.29971
O -8.80021 4.93486 8.15918
O -1.11845 -0.488606 -2.48072
O -4.15816 -6.30567 -0.685775
O -2.84509 -7.20355 -5.06601
O 3.19379 5.91534 7.31797
O -8.77243 10.022 -7.32032
O -4.18001 7.24524 -2.7473
O 2.84155 9.65718 -8.15003
O 10.0873 -1.05761 -0.778481
O -8.87769 -8.62755 -8.26287
O 5.08783 2.90206 -2.34373
O 5.20763 10.2955 -8.66944
O -1.18189 -9.65152 -2.6907
O 3.46644 -8.25317 5.72145
O -2.98759 -2.93085 4.13801
O 9.78938 5.922 -9.00372
O 5.82504 -9.07375 6.22991
O -2.47043 4.90648 -0.300054
O 6.51467 -5.55117 6.40435
O 7.22735 6.195 -8.61894
O -6.21293 2.44716 8.59567
O -2.4328 1.08359 -0.812885
O 6.00879 0.525605 3.85238
O -8.77498 -9.52115 7.97762
O -8.63274 8.06276 7.20374
O -6.35118 8.34221 5.75201
O 2.16491 8.31117 7.06971
O -3.28291 7.97184 -7.18481
O 9.36165 -8.67591 -3.92722
O 2.53479 4.80374 0.521452
O 7.72915 3.46677 -2.05398
O 6.4727 -1.59646 -0.999172
O -9.97453 -7.44035 3.23185
O 0.262495 1.1003 -0.839582
O -0.680434 3.69825 -7.54622
O -8.32877 -4.88264 7.34007
O 7.20454 7.94068 -5.60652
O 9.13897 7.99529 5.91378
O 0.637687 4.0459 4.86961
O -0.214569 9.75766 3.16097
O -0.933029 -0.896901 0.107534
O -8.68617 -6.27531 1.58129
O -5.85278 5.04051 -2.27982
O -1.88618 9.26733 7.27169
O 2.2483 -0.844053 3.80768
O -6.52697 -5.41274 2.77003
O 5.93481 -2.5107 7.31793
O 7.62025 -3.909 2.16236
O -2.71932 -2.4498 -3.30486
O 7.49285 4.57452 1.61055
O 3.02447 3.88709 5.71646
O 1.48303 10.0552 5.34919
O -4.49814 5.60026 6.16923
O 1.68149 -6.54695 6.62023
O 9.17532 8.20704 2.33623
O -3.99345 -2.07136 6.3805
O 4.34274 -8.14833 8.20752
O 4.92011 -4.0056 1.83513
O 7.1579 3.57473 -8.53414
O -5.16649 -4.70489 -6.98568
O -3.85103 -7.37626 7.83084
O 4.52969 3.42767 7.89027
O -4.40481 1.95796 3.3796
O -5.70232 7.7279 0.933949
O -7.19799 -3.86073 -5.61543
O 4.99031 1.46878 6.24574
O 7.34098 -2.33163 -3.3523
O 3.80572 -7.90021 -2.31578
O 0.418401 8.78279 -8.44218
O -2.42785 8.18304 -4.57036
O -4.03572 7.04826 2.79819
O 5.46182 0.764376 -1.02163
O 0.0258883 8.11122 0.961051
O 6.48766 -5.83442 0.891844
O 7.24712 -8.55517 3.99703
O 4.28917 0.759324 -3.38244
O -4.11367 0.677757 1.14502
O -8.55684 7.53126 -6.18065
O 7.47507 -10.3029 -2.85043
O 3.03017 -8.11581 -5.20281
O -9.07029 -5.68176 -2.29515
O 4.32958 9.74561 0.860255
O -0.900664 2.87683 -3.84535
O -0.285303 -2.97459 -2.29233
O -7.35926 3.91743 -11.3711
O 9.83046 -1.31641 -7.77663
O -4.68405 -9.8851 1.52284
O -4.37387 0.355245 -7.19813
O 3.28566 1.63772 -5.59672
O -5.96576 -6.85615 1.04096
O -7.22383 9.96178 0.932918
O -6.62732 6.32932 7.83864
O -5.10297 0.590594 -1.16259
O -6.4365 -5.05595 5.54694
O -1.79461 -4.84269 2.59841
O -9.22272 -3.67046 -3.85654
O 2.98401 1.44805 -1.23673
