585
Atoms. Timestep: 1790001
Si -3.88697 -3.52492 7.70158
O -4.67353 -4.07253 9.08765
H -4.74923 -3.4478 9.79933
Si -7.7747 3.499 -11.1132
O -8.13036 3.27901 -12.7304
H -8.67181 2.52026 -12.9138
Si 6.43144 8.28976 10.5232
O 5.86319 8.5871 12.0654
H 5.98374 9.47189 12.3896
Si 7.99477 5.48086 10.7366
O 8.34959 5.38316 12.4082
H 7.66089 5.70864 12.9758
Si -5.35927 5.47993 -10.4007
O -4.67365 6.27401 -11.7006
H -4.6386 7.21914 -11.6111
Si -6.12218 -1.42166 8.04492
O -5.64842 -1.44576 9.73032
H -6.27101 -1.02346 10.3104
Si 2.21007 6.11824 2.37579
Si 8.03002 1.57449 -6.3281
Si 5.83999 -1.35307 6.59815
Si 2.63122 -3.45671 4.54998
Si -4.11701 -7.56178 -3.87809
Si 6.80959 -3.77189 -1.77343
Si 1.45432 8.46046 -8.1488
Si -7.54652 -0.43011 -1.4272
Si 5.44103 2.4071 -4.78965
Si -6.74219 9.13227 2.61829
Si 4.94301 -3.11668 0.704311
Si -10.1322 1.97914 -4.92619
Si -6.55526 -4.98452 0.204823
Si 6.01615 2.45619 0.807668
Si 3.21182 8.07053 0.340438
Si -8.09275 -7.0389 1.64491
Si -1.15826 -3.42691 -6.88138
Si -0.85873 6.53371 -8.1518
Si -6.32412 -8.23907 -5.92029
Si 8.04486 0.419759 8.09997
Si -8.44724 -7.36114 -3.64613
Si 9.10938 3.97817 4.25837
Si 8.29487 -1.75565 4.75456
Si 8.2789 -1.48468 -6.20041
Si -3.19853 -7.80854 1.50778
Si -7.90692 4.21656 -2.1091
Si 2.95962 -8.38688 3.23433
Si 5.10641 -9.52936 -6.17227
Si -6.70117 1.07804 -9.46415
Si 8.25146 -6.01825 -6.25288
Si -8.50217 7.07628 7.14288
Si -5.78722 2.2305 2.14944
Si 4.34889 -5.96512 4.75147
Si 4.48682 8.77163 -7.73209
Si -1.92698 8.0661 3.03359
Si 4.05998 2.17423 8.46643
Si -7.51715 -3.35612 -6.46967
Si -6.42198 -1.88263 -9.04726
Si 1.95676 -2.70947 -0.103138
Si 6.78689 3.04834 9.10891
Si -6.1705 -3.79226 2.97719
Si 0.0930294 -10.0251 -7.92796
Si -6.36239 3.49952 -4.83171
Si 10.2862 3.10225 -0.994403
Si 6.20122 9.80115 6.34309
Si 1.65483 0.892676 2.43656
Si 2.8403 -6.83339 0.481555
Si 1.94811 -0.353552 -7.66653
Si -1.92061 -4.13757 -1.55298
Si 2.66308 2.20748 -6.22931
Si -8.59659 4.00526 7.44638
Si 8.35541 4.28087 -7.70559
Si 4.10872 9.23474 8.5571
Si 3.97884 3.20995 5.55105
Si 7.32111 -7.92498 8.43721
Si 2.07711 -1.95678 -4.9695
Si -9.96523 9.67236 7.8608
Si -5.52604 9.80851 -6.68065
Si -1.36871 -1.80358 4.69246
Si 5.93174 5.4651 -4.22214
Si 3.52301 -6.97667 -5.6953
Si 1.23856 9.93377 -5.47267
Si 8.59394 -8.57743 3.44385
Si -1.22672 3.31035 0.041115
Si 9.37537 -2.29779 7.81918
Si 7.8086 -1.04606 -3.05557
Si 1.852 3.98182 7.61515
Si -1.46702 10.2207 -4.16501
Si 8.26989 -9.10259 -6.297
Si 2.47311 -7.65169 6.18525
Si 8.64887 7.36653 1.65113
Si -3.5687 1.74207 6.66559
Si -10.45 0.336922 -2.24685
Si -0.805548 -7.19037 -8.26575
Si -0.768174 5.85204 1.75227
Si -9.35113 6.93999 -7.30201
Si -1.76277 4.43682 4.33677
Si 8.60816 4.14725 1.30707
Si -8.71801 -2.42432 3.95554
Si 10.4043 -3.78703 -5.71374
Si -3.05022 4.40821 -8.66393
Si -3.16064 2.76099 -2.27177
Si -9.41739 -9.58878 0.354789
Si -8.22903 2.51707 -7.09232
Si -5.99149 -8.8409 3.02453
Si 8.2567 10.2325 8.85527
Si -7.04619 -9.46751 -1.78014
Si -1.63673 2.4124 -6.81105
Si -6.62801 1.60213 6.97787
Si 1.34228 2.03144 -3.33105
Si -0.785528 3.01637 6.83334
Si -0.557709 -6.7829 5.88172
Si 6.37642 -3.76107 -6.8567
Si 4.96494 7.62669 -2.34414
Si -4.09183 -1.03307 6.0249
Si -6.78358 5.17413 2.61168
Si -5.66466 -9.64075 6.09775
Si 10.0351 5.45739 8.34923
Si 2.34839 7.09769 7.22282
Si -8.74026 -3.05779 6.97269
Si -2.14839 -9.91066 3.24846
Si -8.2486 7.32984 -2.23543
Si 1.45277 -5.14017 -7.42829
Si 0.673298 4.45768 -6.17015
Si 8.55595 1.18446 5.0999
Si 9.96825 -8.9319 -3.64329
Si 6.88877 -8.53517 0.916187
Si -2.82779 5.39962 -3.59951
Si -3.00733 1.80925 3.5376
Si -6.08182 9.09716 -3.65972
Si -8.61855 -8.92415 6.75161
Si -6.03811 2.19309 -0.961926
Si 5.9217 -4.40595 6.74425
Si 4.12158 -8.67981 8.46693
Si -10.4055 -6.15254 3.60126
Si -2.64989 -0.181416 -3.25166
Si 8.69819 5.14191 -2.76876
Si -4.18412 7.51024 -1.73107
Si -2.21265 9.60598 -1.04566
Si -1.0333 -0.427408 -8.04941
Si 5.68475 1.39408 3.71561
Si 0.124089 -3.10541 2.50306
Si -4.05362 -5.07368 4.94019
Si -4.24186 6.24358 4.27088
Si -4.23658 1.21157 -5.4269
Si -9.82854 8.98099 2.38184
Si 6.52964 -8.20242 5.59485
Si -9.99401 4.43785 -9.04093
Si -1.3205 0.473368 1.52278
Si -4.41222 5.71178 -6.0103
Si 3.41023 -3.04129 -7.48442
Si 6.04028 -5.30182 -4.38041
Si -5.92167 8.25144 5.63408
Si 4.91706 6.21084 5.51309
Si -5.95687 -5.86784 -7.82242
Si 0.683787 0.538132 5.42648
Si -3.03949 -1.55897 -0.329058
Si 9.48171 -4.8534 -0.416624
Si 0.869817 7.84352 4.6302
Si 2.33965 -9.14831 -1.54773
Si -3.09928 -5.21399 -8.64694
Si 2.98499 -0.479001 7.39331
Si 4.77129 10.4249 1.8148
Si -4.08905 -8.88192 -1.02038
Si 6.89961 6.84444 -6.94702
Si -4.10257 -0.057738 -8.37183
Si 3.85153 10.2053 -3.69772
Si -6.71299 0.0848857 4.2858
Si -0.959882 -2.50395 -4.06087
Si 8.03789 7.84193 -1.33784
Si 3.11092 3.57293 1.4142
Si -3.30884 -8.16936 5.60952
Si -6.04068 -1.98704 0.653795
Si -6.92488 -2.8595 -3.32776
Si 4.04919 -1.16258 2.93791
Si -9.52516 -4.54773 -2.86776
Si 5.4768 0.979301 -1.9868
Si 2.61487 -0.544428 -2.22741
Si 1.18486 -7.26982 -3.55894
Si -4.86353 -5.08205 -2.26975
Si -6.27193 7.29445 -7.88296
Si -6.56321 7.29807 0.370128
Si 7.34768 4.9783 6.68784
Si -0.924603 -3.81007 7.05467
Si 9.15327 -7.92564 -0.874473
Si 6.28002 8.19692 3.65422
Si 0.779704 -10.4954 3.28577
Si 0.81904 -5.19314 -1.27831
Si 3.57219 -5.73 8.21497
Si 5.40187 -5.87604 1.6941
Si 1.65689 3.91174 -1.16548
Si 10.4583 10.4769 5.04671
Si -9.13902 5.34426 4.73515
Si -2.38808 9.08917 -6.78714
Si 10.4298 5.04175 -5.32475
Si 9.64989 -3.4082 2.49778
Si 10.1813 9.05916 -3.25968
Si 0.723069 9.73107 0.224665
Si 9.32047 8.94596 -6.42323
Si -5.47901 -4.46103 -10.4105
Si 1.95491 -3.23272 7.73084
Si 0.164823 4.83558 -3.3549
Si -1.43566 -7.80749 -5.20966
Si 8.56693 -5.19295 8.11728
Si -1.62052 -5.63046 3.18303
Si -9.6266 -5.97047 6.72489
O 6.71001 -0.387712 7.62477
O -2.69083 -4.79058 4.07452
O 7.5121 -7.9359 6.86377
O -9.71767 -8.19061 -4.03503
O -2.3297 3.40553 -1.09388
O 7.22107 3.51392 0.714137
O 6.48536 8.86955 5.10508
O 8.89049 -9.19601 -4.77728
O -6.58806 4.55975 -10.8049
O 0.777997 5.96929 1.54381
O 1.43483 0.53801 -2.63468
O 1.18046 -5.95946 -2.63194
O 2.92372 -2.95491 -5.93384
O -0.0975206 5.61251 -7.06212
O 8.53643 -7.56623 -6.70667
O -9.18333 -6.39169 2.60208
O -9.29586 -9.80609 7.90264
O -7.0909 -9.25233 6.6763
O -4.68968 2.39855 -1.85117
O -3.25673 7.26282 3.46005
O -3.41472 1.62881 5.06861
O -1.81515 5.53715 -8.9635
O 2.82538 8.28663 8.25308
O 0.0670128 9.99001 -4.44068
O -6.84451 6.04921 1.27077
O -7.22306 2.09476 -10.5736
O 7.38692 -2.47774 -2.51099
O 4.52685 8.78968 -3.35268
O -6.27388 -9.73574 -6.54232
O 10.3933 -8.88194 -0.387369
O 2.40788 -4.05979 -8.11024
O -6.56603 3.58421 2.30473
O 1.00643 9.91683 -8.73153
O -5.06699 0.909552 -9.28575
O 8.89054 -0.266695 4.48457
O -6.87741 -7.57875 2.59737
O -10.0591 9.62354 3.78554
O -6.30577 8.56352 4.07296
O 9.41317 4.25594 -8.94205
O -5.18549 -4.27919 4.13661
O 9.43082 2.46787 4.68528
O -5.07768 2.12845 7.02445
O -8.83761 4.16145 5.81958
O -6.35365 -7.26747 -7.15075
O 5.07288 -5.1678 7.89792
O -5.02991 -8.22847 -4.98133
O -2.2704 2.53693 7.28339
O -2.51557 -0.196144 -8.80849
O -3.22362 5.08364 4.59753
O -2.39617 -2.99607 -0.454382
O -2.74071 -7.12286 -4.63627
O 5.23706 -4.69968 5.34795
O -4.38511 0.456096 -6.89939
O -4.55294 -8.36778 2.28584
O -8.79448 8.63781 7.7686
O 9.59953 -5.08473 -6.24915
O 0.567145 -6.25025 -8.3017
O -2.45311 -6.54084 2.17713
O 9.27378 -0.477969 -2.59698
O 1.12257 5.08378 -2.11004
O 8.17547 0.049154 -6.74924
O -9.48995 -9.37588 5.42162
O 0.882209 5.0942 -4.72762
O -1.46564 7.26059 1.71755
O 4.97341 9.36483 7.24177
O 8.47999 6.3406 -1.72833
O 8.69886 5.52385 7.45908
O 9.6082 8.80835 -4.77182
O -9.98283 6.60295 7.92044
O 8.9724 10.5006 -6.89788
O -0.982451 -2.11923 3.15891
O 2.95382 -7.9762 -0.649415
O -7.64359 2.72601 7.60251
O -1.22631 5.50662 -3.27046
O 4.93341 -3.58504 -7.53811
O 5.02128 6.28361 -3.15673
O 0.2833 3.23972 -0.483723
O 5.62348 -3.2846 -0.709326
O -10.012 -2.6796 3.01637
O -5.46419 4.84635 -5.04616
O -9.68167 8.07644 -2.68407
O 5.22513 1.94767 -3.24423
O 6.86195 3.8714 7.7438
O 7.32775 5.53343 -7.7759
O 7.44841 9.89045 7.39354
O -6.83572 3.65066 -1.11019
O -9.31304 3.62428 -1.54852
O 9.82153 3.59304 0.426201
O -2.03573 -6.41286 -8.97674
O -5.77718 -9.08489 4.57744
O -3.54357 0.136696 6.92101
O 6.79709 -1.48639 5.25192
O -6.19962 -3.04431 -9.96986
O 2.74435 -0.387557 2.35498
O -4.70191 8.62623 -2.81175
O -8.19346 5.76223 -2.20228
O 8.6035 3.90586 2.8356
O 9.28702 4.76752 -6.44913
O -5.81756 6.62674 -9.25531
O 6.99364 1.45088 4.64554
O -1.46947 -1.00144 -3.88906
O 8.12298 7.9365 -6.80888
O -3.7167 4.89664 -7.24978
O -0.673797 -10.034 3.81955
O -1.35778 4.65419 0.934028
O -7.33815 1.67684 -8.08781
O -6.95785 -1.47931 -2.57174
O 4.52811 2.38228 4.28605
O -2.34309 -3.4053 7.77687
O -1.65837 -9.34191 -4.70909
O -10.3627 -4.65122 -1.46671
O -7.07998 -0.483577 -9.60237
O -2.35322 2.99538 -8.15065
O 8.0725 -9.22921 8.96528
O -7.67626 -8.11161 -2.39607
O 8.97737 -0.889988 8.48113
O 6.17995 1.62266 2.22779
O 3.63742 6.87802 6.16063
O -1.27128 10.1101 -7.44354
O -3.14346 5.96313 -5.03443
O -5.33632 7.02576 -0.681304
O 9.44309 -6.46896 -0.268552
O 9.77952 9.77213 8.87514
O -7.67087 -3.63454 3.43718
O -8.68366 -8.4358 1.17444
O 7.85774 2.74226 -7.38671
O 7.29063 -8.01255 4.20734
O 3.04293 -4.96157 4.39466
O -0.788192 -5.40689 6.63915
O 4.23177 -8.22151 -6.4708
O 3.08694 8.29244 -8.23787
O -3.3062 -4.73306 -2.13171
O -4.73967 7.15442 5.46112
O 9.17393 -9.80224 4.34019
O -6.06264 8.91156 -7.87988
O -3.14397 3.83338 -3.46248
O -8.98825 -2.62896 5.49199
O -8.1106 5.26914 3.53209
O 1.26723 8.6709 -6.54657
O -2.39727 9.57328 2.88064
O -10.0053 1.14817 -3.56816
O -0.730415 -5.12655 -1.10448
O 3.55764 -7.22965 9.00201
O -8.92095 -5.96992 -3.24586
O 2.7751 -1.36542 -3.64163
O 4.90341 -1.81062 1.69413
O -8.33394 -3.53797 -2.8514
O -7.27672 3.6864 -3.52784
O -0.187239 1.73238 6.10491
O 9.00093 8.82085 -2.17409
O 5.58038 9.30221 2.70119
O -7.05278 -2.9111 -4.9612
O -4.92355 -1.43181 -8.49662
O 4.06118 7.70276 -0.964898
O 7.90332 -1.22368 -4.6613
O 1.32657 -8.53965 -2.58383
O 2.79908 3.2007 8.56502
O -7.00676 1.01161 -1.56174
O 0.619843 -2.42859 -4.39086
O 1.58888 -5.96395 -0.01155
O 7.40139 9.50785 10.055
O 3.28924 -8.73074 7.09964
O -3.78453 -8.4803 -2.57785
O -9.14702 -0.388289 -1.61299
O -5.40335 2.18776 -4.95721
O 1.51393 -3.74657 -1.25544
O 2.6804 -4.48639 8.53631
O 1.21082 7.60376 6.18797
O 4.24735 2.0221 -5.72267
O -5.67933 -9.17926 -0.974355
O -5.68991 -3.82397 -2.84944
O 6.02772 -4.00048 -5.31357
O -6.55819 -10.2915 2.54077
O -9.32312 3.4158 -7.88688
O -7.47256 -7.63166 -4.93257
O -2.98877 8.25093 -0.991499
O 0.693765 10.069 1.79902
O 9.99803 -5.69695 7.54217
O -7.77208 7.1128 -7.48129
O 5.7393 -9.64351 0.971599
O -7.14655 7.95326 -3.24189
O 2.65148 4.27665 0.0285327
O -2.08015 9.12467 -5.20148
O 7.09337 6.84471 10.486
O -7.09243 1.15873 5.52793
O 0.329456 3.5533 7.81211
O -0.620516 -4.56329 2.45056
O -7.91033 5.47016 7.65106
O 8.63698 0.981516 6.69085
O -1.0364 4.19657 5.75889
O 2.40823 3.50338 6.12541
O 3.06733 -6.22214 6.75159
O 3.93786 -10.2519 8.98303
O -1.86434 9.97736 -2.62485
O -1.24421 -7.50094 -6.71914
O 4.91135 -0.0432366 3.66143
O 8.17781 8.14327 0.256122
O 1.62828 8.40221 0.040859
O -5.98309 -4.86475 1.74725
O -2.14467 -4.21251 -7.80748
O -6.72123 10.4339 -2.97172
O 8.04973 -8.88666 1.9829
O -10.0604 4.05969 8.09038
O 6.20513 6.03999 6.54101
O 4.11353 0.130284 -1.89012
O 3.11598 -7.49969 4.7117
O 0.42774 7.40096 -8.63578
O -2.03329 -0.59026 0.520878
O -8.23719 -10.0149 -0.737266
O 6.39129 6.40002 -5.46476
O -9.05754 1.59371 -6.01185
O -9.70022 5.89976 -8.49186
O -7.219 -2.27604 -7.65831
O -9.0017 6.68564 5.559
O 1.90169 0.0959925 6.4262
O -7.31085 -2.35772 7.56705
O 1.838 2.0711 -4.82113
O -10.0164 -2.45469 7.86269
O 10.3148 4.97092 4.30967
O 7.4668 -6.04298 -4.88142
O -3.91638 -6.68637 5.09568
O 2.39146 1.19187 -7.42484
O 5.13814 8.37087 9.57281
O 8.53178 -2.68607 3.43905
O 5.85401 1.66385 -0.593578
O -3.13853 -10.1332 -0.649521
O 0.395265 -3.30362 7.72897
O -2.15715 -8.97976 1.95682
O 8.98028 -2.23037 6.22452
O 2.33698 2.17942 1.75917
O -9.09991 -3.702 -6.32861
O 5.33138 -7.07129 5.60611
O 3.32706 -3.25548 0.493186
O 9.80233 -4.85698 3.19702
O -5.72912 9.24294 -5.17332
O 4.54642 4.68396 5.37164
O 5.90118 -2.88565 7.15404
O -0.287427 -0.688188 5.13803
O -0.785469 -6.42352 4.31646
O -5.59981 -4.72009 -11.8949
O 4.23562 -6.05787 0.59664
O 9.57733 -3.95629 0.957621
O -1.00414 0.919895 -7.11861
O 7.94034 -6.45466 8.92231
O 9.24536 3.82036 -2.04482
O -3.88527 9.71826 -6.8662
O 0.219703 0.443407 1.91369
O 3.00172 -1.55883 -8.04239
O 3.41217 -10.008 -2.38751
O -9.99215 3.6516 -4.88456
O -5.49765 -5.43202 -0.875006
O -7.72947 7.7129 -0.657357
O -2.91549 -9.20439 4.49369
O 2.66325 -7.43542 1.97587
O 0.863418 -7.50979 6.16802
O -7.86859 -0.998048 3.9421
O -0.928708 5.33343 3.29634
O -2.89498 -1.48485 5.08361
O 5.67377 -4.3372 1.49759
O 2.58428 -6.01634 -6.60333
O -4.26056 2.39157 2.72586
O -6.72468 -3.34543 0.0607285
O -10.4086 8.19138 -7.11178
O 4.52361 2.41165 6.89864
O -5.38003 -0.64329 5.02637
O -5.7707 1.81188 0.562728
O -0.0384057 -7.33086 -4.59278
O -10.4981 -10.4073 -3.29551
O 4.81889 -6.26765 -4.947
O -3.63041 -7.71169 0.0247863
O -3.88457 -4.50219 -9.84648
O 7.62245 7.68655 2.83845
O 0.578115 -0.413732 -8.47665
O 9.60889 -2.44151 -6.09606
O -9.87576 10.1475 1.26998
O -4.38453 -8.86772 6.52763
O -6.05193 8.44563 1.35844
O -4.70533 -2.05291 7.22032
O -1.87027 2.93868 3.69544
O -8.96758 -7.38193 7.00107
O -6.08539 -5.66548 -9.41738
O -10.4838 -4.04475 -4.13466
O 8.88132 -3.65372 8.54922
O 1.49549 -10.0959 -0.548447
O 3.73295 9.4733 1.02504
O 7.20643 -2.40115 -6.96611
O 6.18943 -4.82144 -2.87529
O -8.69923 -4.65339 7.08548
O 4.62946 3.17779 1.05261
O 7.27027 4.15294 10.1872
O 2.46609 -1.79744 8.16388
O 9.29327 -8.07038 -2.40811
O 3.39799 0.713187 8.42381
O -1.55162 1.90954 0.861052
O -0.562385 3.37007 -6.20086
O -3.82722 0.097608 -4.3448
O -2.37347 0.519521 2.76847
O 9.67676 5.56579 -3.93635
O 0.0907732 3.13763 -3.33278
O -4.91091 -6.35095 -3.23018
O -0.349681 -8.69546 -8.69135
O -2.96106 2.12766 -5.8278
O 2.43659 -3.31867 6.15221
O 1.26964 -3.17949 3.72467
O 6.64666 -9.29506 -6.28798
O -0.997947 -3.03802 5.64834
O -1.5894 -3.29015 -5.34917
O 8.64176 5.78508 1.35352
O -9.07787 4.07732 -10.3672
O 10.2196 1.49075 -1.14368
O -3.05285 -1.02034 -1.88584
O 10.3414 9.74165 6.42794
O 4.84089 -10.0185 -4.68224
O -5.51589 9.76879 6.13945
O 9.36549 1.81789 -5.42981
O -5.92382 -2.35497 2.18497
O 5.2571 2.56654 9.40497
O -5.45259 5.62611 3.47871
O -7.15257 -0.875517 0.0989476
O -0.800406 9.64692 -0.269442
O 0.228827 -4.22112 -6.85005
O -0.684276 7.99558 4.14975
O 6.82231 1.78061 -5.2915
O -7.72417 -6.07426 0.427577
O -1.10944 -1.88361 -7.44135
O -4.10154 -4.48355 6.4397
O 5.42818 4.0424 -4.72544
O -4.54045 -1.64845 0.166496
O 4.05514 -9.48842 2.88205
O -1.26854 -3.2391 -2.74354
O 6.64814 -0.060873 -2.51042
O -6.32238 0.115392 7.74062
O -9.59479 6.09389 -5.9559
O 1.62763 -0.86412 -6.07957
O -4.18693 4.60809 -9.71612
O 5.92588 -9.69527 5.83867
O 7.25867 5.05323 -3.44948
O 3.64722 -2.3461 3.9145
O 0.733448 -2.81691 0.98533
O 2.7394 4.60953 2.54288
O 5.31801 6.99184 4.19286
O 9.404 5.58942 9.82681
O -6.67919 -4.62153 -7.03505
O 2.19543 -1.36464 -0.933288
O -1.90024 7.64504 -7.48732
O -9.89879 -5.90839 5.12944
O -1.86265 -7.68541 6.25515
O 5.68294 7.76674 -7.52313
O 5.69016 -8.25078 8.4978
O 7.72107 -8.50989 -0.441728
O 2.08957 3.72463 -6.66198
O 4.37022 -0.832037 6.64357
O 7.28886 -5.05908 -7.11435
O -7.22315 3.37488 -6.21812
O 8.02459 -4.49216 -0.993463
O 4.89689 -6.17574 3.21797
O 9.71759 -7.46375 3.50296
O 2.23995 2.86708 -2.26025
O -3.64121 6.21154 -2.48969
O 0.939157 -9.86496 -6.56336
O 10.0922 7.85973 2.01588
O -4.35123 -5.70054 -7.70004
O 6.37681 -7.06627 1.2963
O 2.55472 -7.38249 -4.48425
O 1.68275 6.82882 3.73402
O -7.03632 7.68337 6.49258
O 4.64649 10.2323 -7.13352
O -2.50437 1.37657 -2.71263
O 2.12883 5.59358 7.72392
O 2.623 9.90129 -4.67514
O 1.6782 -9.22602 3.5086
O 7.65814 1.7302 9.00956
O -6.41013 1.00952 3.05987
O 1.3983 9.32342 4.19367
O 3.19643 6.9333 1.52301
O 1.29713 1.04122 4.03106
O 7.4529 -4.92398 6.95252
O 7.89349 4.31544 5.32936
O -5.26115 6.80213 -6.74258
O -8.26964 8.59024 2.39389
O 6.49106 7.91495 -1.8862
