591
Atoms. Timestep: 1790001
Si -5.76887 10.0161 -10.8926
O -6.1454 10.3979 -12.5103
H -5.53298 -10.0888 -13.0082
Si -8.81765 -1.63189 7.75416
O -7.67585 -1.12417 8.90054
H -6.78214 -1.38395 8.71002
Si 10.343 -3.83728 9.13068
O -9.72093 -4.31695 10.4596
H -9.79634 -3.70148 11.1793
Si -4.07657 4.55423 9.48794
O -4.30453 3.67614 10.9011
H -4.54483 4.22887 11.6354
Si 8.57173 9.74077 -9.556
O 7.86936 9.99336 -11.1169
H 8.08577 -10.1741 -11.4864
Si -1.96432 6.90372 10.11
O -2.33787 7.37572 11.693
H -2.16305 8.29499 11.857
Si 2.52331 -9.6292 8.38921
O 2.51061 -10.0042 10.0507
H 3.21047 -9.5688 10.523
Si 1.53502 -6.65525 8.10429
O 1.40824 -6.05508 9.66368
H 0.773407 -5.35673 9.77224
Si -7.34276 7.34421 -10.7192
O -7.71829 7.32461 -12.4034
H -7.08662 7.75954 -12.9641
Si 8.65376 -8.22259 -8.55899
O 7.94922 -7.40821 -9.86783
H 7.47278 -7.9814 -10.4569
Si -10.1607 -8.85299 8.89195
Si 9.97638 9.79316 9.25999
Si -4.9436 -5.75069 3.13741
Si 4.45232 -10.1106 3.53209
Si -9.33746 7.63369 8.50984
Si -3.38558 3.5069 -6.15457
Si -2.60773 -0.782856 -6.23856
Si -7.22608 4.13759 4.09463
Si 10.0869 5.01036 7.86615
Si 3.92547 6.77106 -4.36047
Si 1.34432 5.28363 -7.23239
Si -4.81769 -2.77606 1.95751
Si 6.40358 6.34309 4.66321
Si 6.956 0.671312 -3.56604
Si -9.85227 1.02326 6.35824
Si 4.1646 -1.36376 -5.94656
Si 5.31657 -4.87701 1.96614
Si 5.12998 -0.0132291 -1.39631
Si -4.99864 -9.1015 -3.50191
Si -9.17783 0.0895822 3.33164
Si 8.00031 9.29939 -2.38852
Si 3.9511 -5.95426 -2.89127
Si -3.71655 0.793021 4.9716
Si 2.19578 -7.29562 -5.00831
Si -0.5479 4.82997 6.61867
Si -9.52749 -7.74499 2.25648
Si -5.24607 -9.67771 -6.59824
Si -5.34346 4.09238 -1.83312
Si -8.4131 9.33261 -3.71979
Si 0.559912 -4.29949 3.27956
Si -6.97415 -9.56563 2.73417
Si 6.10871 -3.8637 -2.83059
Si 7.75591 -0.760358 3.93511
Si 6.39519 -5.97386 8.33259
Si 1.40132 -4.21016 -2.21806
Si 9.5051 6.13289 5.09435
Si 4.34489 6.14189 -7.50195
Si 8.00629 -6.31347 -3.02859
Si 6.20635 3.83701 -6.78252
Si -4.05519 8.39878 -6.90949
Si 10.1882 -4.27116 -2.49757
Si -5.37755 5.68725 -6.46887
Si -2.94471 7.77826 -4.03348
Si 3.91204 9.94346 -3.81357
Si -6.61524 -7.56506 -1.49227
Si -9.55068 8.86645 -9.04035
Si -9.09882 -8.91041 -2.32038
Si -0.237399 2.91672 -2.60325
Si 7.14375 9.27184 7.95484
Si -7.03147 -3.23249 5.68414
Si -2.7643 -9.97843 -10.5513
Si 1.02647 8.8444 7.14209
Si -7.0698 -6.22879 5.40799
Si -8.85878 3.53272 -7.72811
Si 1.70283 8.5175 1.41126
Si 8.64519 6.60678 -5.64742
Si 8.04092 1.2511 6.46637
Si 1.44204 4.20683 -0.693197
Si -2.45586 5.12994 -2.60244
Si -7.39652 1.18805 -6.21772
Si 1.72482 6.7927 -2.41948
Si 7.59484 -5.6504 3.90765
Si -9.13147 2.80834 -0.574547
Si 5.95395 -0.506854 8.32371
Si 6.62703 4.60356 -0.832703
Si 5.67171 -8.90676 8.04796
Si -9.67106 -7.33352 -4.97003
Si -7.55197 -9.64636 -8.65556
Si 2.77602 -1.48238 -3.05542
Si -0.869146 -9.12565 4.41075
Si -3.60052 -4.81307 -7.65289
Si -5.21597 -0.244781 -8.1019
Si 0.720943 -4.48469 -5.19121
Si 7.71039 -3.2017 5.7214
Si 8.36603 10.0425 5.06089
Si 8.1645 -7.86565 -5.54433
Si -2.597 4.28309 2.37198
Si -1.77581 9.49775 -8.12551
Si -6.18319 -3.24763 -7.32821
Si 2.83034 -8.28933 1.83863
Si 10.1032 -2.64869 -5.29338
Si -2.21323 8.88604 7.60034
Si -7.75585 -8.7143 7.08126
Si 9.44642 -6.4116 7.66527
Si -9.76219 -7.48754 5.24168
Si -2.9313 6.35312 0.141855
Si 3.79495 1.81421 2.34709
Si 9.5375 0.151651 1.44107
Si 1.7594 -10.0144 -6.04916
Si 6.40604 7.79105 -0.162184
Si -8.94087 -2.96069 3.1358
Si 9.99366 5.74364 2.05561
Si 6.65938 5.20641 -3.86253
Si -8.17157 0.0749354 -1.22961
Si 4.72676 -2.27365 6.16106
Si 1.55123 1.31641 4.26245
Si -7.65895 -4.45936 -2.06419
Si 7.32969 3.88914 7.86601
Si -5.3278 2.27092 -4.11847
Si 9.25478 3.72737 -6.91611
Si 9.99761 -9.53261 0.142416
Si -9.68426 8.10682 -5.9574
Si -8.91643 -4.74986 -6.63917
Si 9.05734 3.13714 0.698852
Si -6.3556 1.29627 3.10495
Si -8.07234 5.4826 -5.30428
Si 4.96793 -7.22198 -0.205824
Si -2.93149 -9.42548 6.62362
Si -1.0378 3.24329 -8.08035
Si -4.14038 2.55625 -8.95162
Si -4.89004 -8.24561 1.03393
Si 0.0961211 -0.135719 -2.43948
Si -9.31618 -0.151704 -4.11721
Si 0.812144 6.30127 8.98707
Si -5.51843 8.97643 -2.71959
Si -2.00412 -9.58851 1.68146
Si -3.23298 -7.84079 -8.41523
Si 3.19486 2.75567 6.28981
Si -10.2841 7.6306 -1.92882
Si 6.6265 8.32055 -7.4095
Si 1.8781 -1.49724 2.92737
Si 6.63341 -8.39543 5.07026
Si -4.75709 7.82553 6.09537
Si -6.38008 2.06423 0.113632
Si -1.35382 1.48428 2.96037
Si 7.47665 -8.80422 -1.07523
Si -1.28761 8.41358 1.8817
Si 9.24078 -2.64872 0.0743531
Si -3.17176 -4.65786 -4.4668
Si -9.88144 4.68006 -2.78944
Si -2.21242 -7.60774 -3.81261
Si -7.49037 -2.57232 0.414273
Si -5.82859 -3.20317 -4.18483
Si -2.12853 -2.2983 -2.59616
Si -9.84532 8.84048 5.68644
Si 4.0819 2.72208 -0.596149
Si -2.32178 -4.70773 4.574
Si 6.01843 -2.57845 -0.0471747
Si 4.96226 2.2624 8.79707
Si 0.338251 -8.41884 0.123262
Si 4.61374 4.11952 3.74116
Si 10.2153 -4.97853 2.23881
Si 2.21767 5.5421 2.08143
Si 7.1297 -2.02376 -5.12311
Si -5.84399 -10.2897 5.72906
Si -6.46783 4.60968 -9.26513
Si -1.14439 -6.94306 6.53234
Si -8.42906 3.70821 6.80977
Si 4.68862 -1.13244 3.30965
Si -6.51867 5.95212 8.13086
Si 3.2472 4.70617 8.63085
Si -2.10739 -3.04576 0.337691
Si 1.74127 9.90731 4.37728
Si 0.646431 8.32806 -6.68483
Si 5.64048 6.54131 7.49592
Si 7.50081 -3.16064 8.94831
Si -9.33861 -7.44062 -7.95835
Si 6.70889 10.3936 -4.9914
Si -0.00200342 0.861152 -6.7819
Si 3.48047 8.91858 -0.946756
Si -7.94228 6.10771 1.81895
Si 10.305 8.42659 0.95568
Si 4.50332 1.70325 -5.37661
Si 1.66768 2.90927 -5.03157
Si -4.40162 5.22053 4.6779
Si 1.39037 -2.00928 -6.98936
Si -4.14623 -2.05833 4.90648
Si 9.51806 2.32787 -4.11476
Si -0.402377 6.16768 3.78259
Si 2.99381 -5.91388 3.76633
Si -8.49181 8.82936 3.0608
Si 3.90183 -5.16024 6.51271
Si 6.65307 8.69711 2.75737
Si -3.07188 3.35847 6.7637
Si -1.26006 -8.9403 -6.566
Si -1.07094 -3.38361 -7.2186
Si 0.381693 -8.87568 -2.85009
Si -4.26814 -0.654118 -3.50912
Si -0.161448 -0.523333 0.73994
Si -6.00316 6.73131 -0.622201
Si -0.0363319 -5.1804 0.450226
Si -0.181445 9.00877 -3.63974
O 10.2747 -9.83405 10.1044
O -1.84607 -10.3941 -7.01438
O -9.87915 -3.40469 -6.36213
O 1.82716 9.14602 2.95482
O -10.352 -9.25396 -1.31453
O 2.1361 5.45518 9.40217
O 0.14337 8.5132 1.17335
O 2.59557 10.4764 -4.64793
O -10.0793 -8.81583 1.2482
O 3.40582 -1.92016 2.75252
O -8.92696 5.06271 -4.02337
O 5.87132 4.92797 4.18127
O -1.89433 -9.86276 5.43139
O 9.20897 5.22945 -6.25966
O -3.32915 -0.759036 -4.79933
O -7.07848 -3.84893 -3.41786
O 7.85068 -6.24197 7.74994
O -6.04391 -6.1457 4.17841
O -7.76205 7.46024 2.65233
O -6.8033 5.90722 -10.0953
O 3.9317 -5.04363 2.73899
O 5.29377 0.740158 9.1583
O -4.61794 1.00184 -9.11632
O -3.99891 2.86213 -4.85617
O 4.11344 -9.35929 8.21716
O -8.98078 -8.70879 5.92547
O 0.0758665 -10.4182 -3.30191
O 7.56718 -6.80991 -4.51888
O 0.262498 -2.7722 -7.90013
O -0.528306 5.76776 5.39553
O 3.45173 -1.70681 -4.53853
O 10.288 7.47318 5.55535
O -6.42791 5.58227 -5.26973
O 2.54752 6.31739 -3.66676
O 3.96785 -0.903708 -2.13361
O 9.9774 3.67207 -3.27511
O -4.44744 6.81078 4.83711
O -8.70061 9.00952 4.61162
O -0.0597374 1.7868 3.90105
O 2.06306 1.81807 5.66832
O 7.61209 8.84328 -8.57259
O 3.77176 -5.97544 5.14652
O -5.02438 -4.10183 -7.91231
O -3.82326 -0.560498 -7.29042
O -5.66079 6.97358 7.11575
O 0.802955 -8.85973 -1.3086
O 2.7095 -7.2558 2.9949
O -1.46597 5.15663 3.1065
O 9.72458 -3.20811 -1.36528
O -9.15542 8.27303 -2.7828
O 5.30397 7.46196 -7.84119
O -1.84776 -5.64599 5.88004
O 3.55097 4.90735 2.86033
O 0.476372 -10.0109 4.37611
O -4.63533 -4.27642 -3.94769
O 1.20626 5.56254 -1.54209
O 6.39047 -10.3067 8.31221
O -9.1744 -7.86708 -6.37444
O -4.29478 2.7757 -7.30689
O -0.804633 0.592172 1.75527
O 2.84234 5.63517 -7.8819
O -9.64971 4.09265 7.78008
O 8.59567 -8.76697 0.0716829
O -7.57139 0.26955 3.15913
O -0.988611 -8.01229 -2.84584
O 9.31186 4.37173 1.81583
O -9.09578 9.34134 -5.15661
O -0.628652 8.86133 7.11687
O 6.53077 6.20712 -0.368203
O 3.62157 2.0271 0.8074
O -8.22295 -8.19821 -8.78917
O -7.85494 -2.29883 6.69694
O -8.57741 -8.6726 8.47447
O 0.588786 -4.49844 -0.865625
O 6.29853 7.27139 3.40665
O 2.6153 -5.75926 7.38313
O 6.09853 -8.43735 6.54639
O 9.70859 -3.88745 1.13969
O 1.54724 -5.20909 4.09198
O -9.83392 8.36024 -7.51737
O -1.47186 0.326423 -6.30817
O -5.99928 -1.74721 -8.11128
O 1.75551 -0.205127 3.91231
O -2.99491 8.48699 -8.0291
O -0.480931 1.30733 -2.77169
O -1.4002 3.96523 -2.85671
O 5.38902 4.95569 -7.70103
O 8.92308 -3.33704 9.67338
O 9.97003 9.87082 5.36689
O -5.36096 5.4554 9.17295
O -3.56073 -2.90244 0.964984
O 8.86926 -5.58414 2.9108
O 5.51009 -6.03961 0.845904
O 7.35794 -0.519396 -4.51721
O 2.80364 7.61011 -1.56457
O 5.42059 -9.03268 4.18446
O 9.70075 -7.66755 -5.05602
O 3.88195 3.44104 9.31797
O -2.72312 10.4003 7.73676
O -9.84833 -6.21341 1.7921
O -3.82481 4.48708 -2.17547
O -2.17518 7.47405 0.976512
O -3.44238 4.6242 5.78879
O 9.41441 7.15505 1.29897
O 1.36903 -3.07382 -5.73432
O -8.551 -0.360647 -2.73619
O -3.30249 8.20748 6.65771
O 9.62524 1.30963 6.692
O -3.48506 -4.8738 -6.06978
O 7.62162 -2.62084 0.108592
O 8.46702 9.23296 8.85144
O 6.85835 8.41063 1.23563
O 1.00275 -2.76644 3.32095
O 7.02293 -6.94723 4.60896
O -9.99478 8.64985 9.57679
O 0.148672 -0.205648 -0.791658
O -9.2761 -4.52884 -2.11626
O -5.36179 -1.77403 -3.44504
O 8.5823 -9.79589 -8.91407
O -3.52608 2.02975 6.00481
O -2.22099 -8.00501 7.06861
O -7.33596 4.9589 2.76513
O -7.98465 -8.31379 -1.31238
O -5.49982 -7.92181 -0.391886
O -9.37372 -7.93652 -3.5176
O 6.43502 9.54348 -6.38856
O -0.0252728 -6.45249 7.5199
O -6.88813 -9.94945 6.91518
O 0.656721 7.92853 -2.77757
O 7.51601 7.22033 -6.60009
O 3.92253 3.53296 5.06463
O 4.69972 -6.75279 -1.70792
O -2.88627 5.65159 9.70801
O 9.90261 5.9525 3.57034
O -7.82471 6.91246 8.64407
O -3.04645 -3.25073 4.93896
O 0.0234943 5.31722 7.95907
O 8.22839 -1.97035 4.7865
O 3.19884 2.45159 -4.87216
O 2.31488 7.05287 1.48476
O -5.8877 3.24665 -3.02508
O 8.02544 -7.76894 -7.16259
O 1.58987 -0.386041 -3.05163
O -8.62182 -10.2717 -3.00795
O 0.114384 4.51824 -8.11144
O -8.98235 3.75345 -1.8462
O 6.28467 -1.09692 3.31502
O -3.95493 5.01353 -6.19042
O 6.09632 -8.35652 -0.371311
O 6.45033 -4.99359 3.04289
O 1.87175 -8.19942 8.10096
O 0.743947 -4.9197 1.82281
O -7.19107 4.64254 7.52368
O 4.81575 -4.66594 -3.29626
O 4.31324 2.12029 7.25634
O -6.96703 -5.96379 -1.74327
O 10.1937 -7.78619 -8.47481
O 4.54261 1.4538 -1.41341
O -9.6688 0.741099 4.72897
O 2.18017 -2.75421 -2.29474
O -3.72663 3.64699 8.1475
O -3.93734 4.65417 3.29029
O 7.70573 3.54319 -7.36875
O -6.40073 -9.78125 4.26182
O -3.2989 -1.13972 -2.32221
O -7.71592 -3.11059 4.23455
O -2.28252 -4.05053 -8.07739
O 7.99421 -3.15836 7.30577
O 4.23124 0.327725 2.86059
O -7.74212 10.1246 2.45185
O 10.4525 3.20236 -0.0392241
O 1.24742 -0.948464 1.51094
O 9.45753 2.69846 -5.65849
O -3.40977 -8.97043 1.19414
O -5.88682 -2.92941 -5.75114
O 0.731838 1.83479 -5.76532
O 6.55237 0.0821185 -2.14966
O -8.63826 -6.38334 4.93418
O -0.321359 1.81098 -8.07574
O -9.25146 1.21286 -0.905699
O 9.45418 8.58789 -2.34735
O 0.339628 3.16176 -1.05083
O -2.22221 6.11081 -1.26357
O 5.44891 -0.999125 -0.102898
O 7.71062 -10.2223 -1.80703
O -2.1067 2.81385 2.46462
O 3.58095 -7.6438 0.496277
O -10.4665 3.64336 -7.87009
O -6.4919 2.05511 -5.16883
O -10.23 -1.34696 -4.73383
O -0.341087 6.67585 10.0192
O -5.89535 4.57412 4.83663
O -1.83561 -2.20274 -6.46739
O -1.96082 9.85676 2.10881
O -5.1318 7.2316 -6.75981
O -7.09906 6.46926 0.503552
O -8.37742 4.3164 5.26055
O -2.20616 8.085 9.03555
O -3.17026 8.19598 -5.53033
O -0.460509 8.7199 -7.76095
O 2.54569 -5.36259 -2.25925
O 8.61859 -0.385024 2.70532
O 2.44975 -8.49943 -6.12702
O -6.0844 5.48252 -1.60059
O 8.81747 4.21948 8.52473
O -4.79661 0.879433 -3.54521
O -2.77737 4.88822 0.941289
O -8.34727 2.11773 -7.10294
O 9.72776 5.13943 6.3178
O -6.22653 8.53433 -10.623
O -8.64384 2.10616 6.66672
O 10.0335 -3.55464 -3.94442
O -8.47573 4.51528 -6.52927
O 4.93264 2.80762 2.85334
O -2.47757 -3.34509 -3.81034
O -0.950099 -9.27819 0.544783
O -9.50473 -0.378 7.09859
O -7.00452 -4.75453 6.08378
O -6.54848 -10.0893 -9.83281
O 7.06133 0.308269 7.42028
O 3.75506 9.89041 -2.24281
O -5.21451 -9.3484 -5.04251
O -5.42763 9.20187 5.66028
O 1.31243 -8.09866 -3.89375
O -1.83836 3.55136 -6.70294
O -9.95721 7.93383 -0.387458
O 4.34015 5.82904 8.10017
O 1.48713 -5.88415 -5.37989
O -6.94 -7.43682 6.51827
O -2.22985 -9.63073 -11.9286
O -8.75086 10.2716 -8.81882
O 2.50651 9.32558 0.291523
O -5.08564 -10.4879 -2.72458
O -4.26192 -8.65422 -7.3293
O -10.2849 1.25524 -4.06466
O -6.81956 9.00435 -3.69988
O 6.72472 -1.77622 8.9897
O -0.99834 -4.47573 3.70421
O 1.72736 10.1889 7.69092
O 5.28239 -5.43229 7.28587
O -9.90101 8.57894 2.30684
O -5.91455 5.12999 -7.86498
O 4.06183 8.33389 -4.11365
O -7.13025 2.58029 3.67983
O 3.2141 -10.4749 4.51146
O 5.32631 3.75108 -0.498513
O 7.83222 0.507911 4.97412
O -5.09015 -4.32214 2.43611
O -6.82095 0.926088 -0.989622
O -6.2477 0.563894 -7.14035
O -3.77834 -0.69467 5.56669
O 10.0544 9.15075 -9.70993
O 9.8609 9.92881 0.605595
O 5.8087 -3.215 -1.45208
O -1.81268 10.2911 -9.51254
O 8.10308 1.80586 -3.49694
O 10.2097 -5.05331 8.15357
O -0.916682 7.60679 3.24353
O -5.81852 -9.36419 1.74185
O -10.0099 0.548202 2.04955
O 2.40139 2.05945 3.10644
O 6.17764 7.9406 8.10261
O 2.82963 3.52918 -1.12425
O 7.79975 -7.62446 -2.09813
O 5.52086 6.83416 5.88853
O 6.34879 3.09924 8.77566
O 0.256193 -9.45745 -6.26673
O -7.55299 -4.07911 -7.12893
O -1.46358 -8.88479 3.03724
O 7.15117 -5.04342 -2.60559
O 5.88404 -7.4632 8.82987
O -3.48792 -5.57151 3.915
O -1.72086 8.66266 -3.43507
O -10.3747 6.05022 -2.18388
O -9.56102 -1.50366 3.35476
O 3.01428 -1.82574 -7.1095
O -2.43514 0.821248 3.94605
O 7.66257 -9.39121 -5.24199
O 9.462 -5.70012 -2.6362
O 5.70805 -1.96485 -5.90764
O -6.067 8.1822 -1.37796
O 3.73415 -3.56492 6.27905
O 9.59 -1.12653 0.444631
O 7.59282 9.38437 6.3879
O -5.04989 1.06254 4.07704
O -3.51996 -8.46168 -3.39485
O -5.24702 3.54195 -9.64431
O -6.04697 -8.12693 -2.89638
O 8.55437 -2.43401 -5.73518
O 2.60166 3.98344 7.18246
O -9.86004 -2.64882 8.45322
O 4.065 6.39444 -5.92728
O 7.88479 6.22714 -4.20621
O 3.47637 -6.79818 -4.13765
O -3.54968 -6.29049 -8.28796
O -2.53692 -6.0702 -3.95473
O 9.88383 7.51799 -5.49736
O -1.39626 -4.4702 0.802005
O 7.85252 9.19487 3.76017
O 1.67258 4.23623 -6.10484
O 1.59411 4.64402 0.879138
O 10.0396 -7.55355 8.7139
O -1.69071 -8.02849 -7.76798
O 0.934264 6.79573 -6.71304
O 8.80106 1.57269 1.03662
O -0.0154333 -6.79563 0.232357
O -8.55521 6.99511 -5.67479
O -8.03504 -8.30752 2.65369
O -1.44718 3.56891 6.79587
O -8.55766 7.90099 -9.82007
O 5.25642 2.57265 -6.56323
O -8.45775 -3.06944 1.59035
O -8.05584 -1.14651 -0.251736
O 5.45911 9.72609 3.0373
O -7.35854 -3.53675 -0.808694
O 0.93477 3.28275 -3.67881
O -4.43028 -9.54843 6.12988
O -0.578178 -4.42913 -6.12082
O 7.22496 8.376 -1.33756
O 7.9465 -4.56959 5.06709
O 6.12049 -2.98717 5.80494
O -9.04759 -5.75332 -5.23284
O -1.10741 -1.81756 0.730282
O 0.582414 -4.28694 -3.61632
O 4.43311 -1.33115 4.92728
O 4.88205 8.43173 -0.410263
O -7.78642 2.90267 0.319024
O -4.13837 10.1307 -10.6602
O 1.28999 7.56843 8.07105
O 5.64418 1.2828 -4.27705
O 6.91171 4.63223 -2.44724
O -4.31142 8.05936 -3.2273
O 6.64625 -4.58711 9.23624
O 5.19915 5.98628 -3.72958
O -0.854138 -1.38566 -2.9483
O 10.3427 -10.086 8.0571
O 7.84827 -9.48672 4.95104
O 5.23256 -10.3915 -4.40055
O -3.29015 -8.63008 -9.77911
O -4.49941 6.66778 0.0491285
O -5.35184 3.11811 -0.507872
O -4.81705 9.84404 -6.82458
O -2.55338 6.20178 -3.71301
O 7.86366 3.81808 -0.164875
O 1.68593 9.49305 -6.75965
O 1.40113 8.89695 5.56236
O -5.9945 1.47986 1.5551
O 7.93659 6.27595 5.09868
O 0.146557 8.71669 -5.14151
O 4.25479 0.220456 -5.97305
O 6.4502 4.33266 -5.23277
O -10.4941 6.45539 8.37255
O -10.25 -7.78731 3.74193
O 0.829301 -0.537378 -6.88138
O -1.77352 -8.24889 -5.21423
O 6.69152 5.30488 7.53331
O -6.16013 -2.29423 1.22992
O -7.86952 3.88266 -8.98451
O 4.91746 -1.31136 7.37685
O 6.83067 -2.85223 -3.79958
O -9.29492 8.52885 7.15287
O 10.1361 -6.937 6.22708
O -4.52258 -1.92419 3.31027
O -0.475878 -7.85039 5.27685
O -6.71482 -9.57971 -7.31281
O -2.52738 3.10828 -9.03654
O -9.99199 -4.12377 3.35599
O 1.43246 -8.71279 1.29099
O 7.51143 2.73872 6.75319
O -4.91032 -6.95324 1.97711
O -9.49208 5.7151 1.60183
O -8.23399 0.173259 -5.26535
O 1.08875 5.7373 3.24934
O -2.04422 -3.08758 -1.2195
O 3.72168 -9.52538 2.25892
O 7.35906 9.43659 -3.84271
O 5.4061 -3.43675 1.17297
O -9.31909 -5.85912 -7.70082
O -5.54604 -2.58329 5.53768
