594
Atoms. Timestep: 1790001
Si -1.15782 4.40381 10.4468
O -0.841193 4.37484 12.1253
H -1.58306 4.16629 12.6809
Si -1.14461 -0.921401 9.27763
O -1.04161 -1.08356 10.9469
H -0.945387 -1.9544 11.3142
Si -5.55151 -7.80638 -9.19066
O -6.07594 -8.27322 -10.7368
H -5.93801 -7.60316 -11.396
Si -1.76285 2.27786 -8.74883
O -2.16068 1.94118 -10.3129
H -3.01386 2.23046 -10.6144
Si 7.78205 -8.23938 9.08949
O 7.7502 -7.63103 10.7192
H 8.21889 -8.16157 11.3527
Si -3.41058 6.60362 9.75737
O -4.24495 6.84173 11.2557
H -3.79616 7.36181 11.9119
Si 10.0447 -10.4135 9.4338
O 10.1185 -10.4057 11.1703
H 10.3929 9.78681 11.5576
Si -4.74157 2.67385 -8.26176
O -4.66019 2.85278 -9.90508
H -5.52396 2.81343 -10.2986
Si 1.65627 -0.915517 8.05331
O 2.89868 -1.21971 9.17186
H 3.72489 -1.36983 8.72763
Si 4.19915 3.976 -9.09596
O 3.85924 4.3192 -10.7434
H 4.53737 4.78032 -11.223
Si -3.95123 -5.105 -8.5331
O -3.69268 -4.00735 -9.80528
H -4.37712 -3.97381 -10.4633
Si 3.18753 0.947613 -9.42571
O 3.26329 1.04252 -11.1492
H 3.81726 1.74241 -11.4744
Si -10.3846 -7.97433 5.46694
Si -7.88519 5.13204 -4.79695
Si -3.63022 -8.01584 -3.03691
Si -8.08395 -4.84098 6.8445
Si 7.79222 10.5038 -4.29004
Si -5.66424 -8.80548 -4.89959
Si -5.53369 6.06648 7.36803
Si -6.29607 9.32289 -4.50229
Si -1.06611 1.69091 1.77788
Si 3.14746 -8.08487 -4.97702
Si -2.5435 1.94484 8.95114
Si -5.9987 7.95584 -1.86116
Si -6.6885 0.660324 -6.91255
Si 5.86903 8.23902 2.69411
Si 1.90273 -7.5051 -0.225292
Si 4.46025 0.98531 -4.94469
Si 0.669584 3.54726 -3.45392
Si 6.50642 -8.21826 2.86478
Si -5.33331 3.13806 5.92107
Si 6.421 7.65759 -7.4495
Si -1.81093 -5.15388 2.97487
Si -2.47269 5.8239 0.128097
Si 6.74913 10.4937 4.84048
Si 1.31753 -1.86764 -4.23927
Si 2.03535 7.63106 -2.6503
Si 5.53709 -10.2101 -2.25342
Si -9.25002 3.56034 6.24361
Si 1.2972 0.961302 -4.9419
Si -5.92324 9.63634 3.57406
Si 0.0807794 6.2508 1.41313
Si -10.3115 -6.26749 -2.9872
Si -8.51033 8.88071 5.30982
Si -9.47861 10.0992 1.562
Si 2.64297 -9.18075 7.08259
Si -1.9001 -7.74328 6.82344
Si -5.59215 9.9819 0.454726
Si -1.648 8.77538 8.52778
Si 2.51131 -7.22336 4.62528
Si 5.51605 4.4138 -0.328219
Si 7.25102 5.99163 7.74078
Si -10.3378 3.24303 -1.58482
Si -7.62918 -4.48082 1.62311
Si -7.37747 -7.06552 -6.68756
Si 9.47348 8.87839 5.07852
Si 3.24748 5.08687 -4.018
Si -0.507471 -3.42477 -2.20719
Si -3.11477 -7.1893 -0.0736312
Si -0.45729 -1.33944 1.42224
Si -4.43103 -6.40585 5.87663
Si 2.4657 -9.65447 -8.86791
Si -6.70443 4.78048 -1.87998
Si -2.86509 7.66232 -2.22911
Si 6.54772 -5.97546 -0.459136
Si -8.46623 -1.70259 0.653812
Si -7.10251 -2.08747 -2.18608
Si -8.54392 6.5219 7.24611
Si -5.50487 -3.59657 6.37875
Si 9.63289 -10.4452 -0.690766
Si -5.99568 0.404815 -3.92373
Si 2.96403 9.30098 2.51735
Si 9.73754 7.70124 8.08474
Si 9.36862 -9.10422 2.81777
Si 3.7441 -8.6804 2.15467
Si -2.80697 -1.3 -2.5117
Si -4.4154 -4.81867 1.45896
Si 9.05272 2.72556 -7.061
Si -0.472538 -5.52002 0.163314
Si 8.57125 -4.22033 -7.39772
Si 4.42991 5.36967 8.34658
Si -3.07713 1.53369 -3.46913
Si -2.52555 -0.222922 4.94585
Si 10.2009 -3.85621 6.17553
Si 8.65709 -0.47069 -4.0342
Si 8.40676 -6.1409 6.87416
Si 10.2657 -9.34839 -3.40014
Si 6.89186 -3.76563 -4.92279
Si 0.687708 -8.06428 -6.65926
Si 9.4386 -2.03723 0.0654551
Si 9.78087 -9.30594 -6.37884
Si -5.20657 5.23463 -6.59401
Si -3.62453 -1.56298 7.66016
Si 0.693239 -2.94198 -7.19768
Si -9.09598 10.0757 -5.12955
Si 0.0754071 3.03937 4.44883
Si 7.26634 -10.4989 -7.4065
Si -8.6725 -9.93342 7.43918
Si -2.33947 -10.4833 6.30304
Si 4.70404 -4.0726 1.25112
Si 9.40078 1.15452 0.566664
Si -6.11411 -4.17544 -6.35736
Si -4.23147 7.19708 4.62775
Si 9.52165 6.27219 3.4768
Si -0.526196 4.77007 -7.54804
Si -7.35976 -8.57346 1.28881
Si 8.90914 4.15469 5.7507
Si 3.6757 -3.74294 -7.21053
Si -9.47655 0.591883 2.72406
Si 6.86933 5.27163 2.41412
Si 9.27743 -7.50016 0.410364
Si 1.16477 8.57469 0.0100509
Si -9.80295 -1.03404 5.38094
Si 0.887498 2.39644 -0.632931
Si 5.07319 8.07307 7.2072
Si -2.31284 -5.40343 -3.93428
Si 4.27993 3.23384 5.97018
Si 5.86553 3.74396 -4.88458
Si -6.97754 -7.63249 6.86277
Si 7.9262 7.36605 -4.62757
Si -4.75062 -3.40895 -3.62085
Si 6.91816 8.94894 -0.216782
Si 1.43125 4.73913 8.59633
Si -10.1387 7.19328 -4.22268
Si -10.3262 -6.2847 -6.11508
Si -7.68052 2.98972 3.6801
Si -9.08768 2.5223 -6.26371
Si 2.71385 4.67144 0.617248
Si -8.00824 0.738001 6.97653
Si -4.85489 -0.163821 2.75787
Si 2.6969 9.09679 5.55671
Si 3.28576 9.93337 -4.2461
Si -2.30706 2.75134 5.85253
Si 2.14714 -2.04355 5.21156
Si -0.465872 -7.85281 4.02138
Si 6.02311 -5.64684 -7.23381
Si 10.2359 6.26877 -1.23554
Si 1.72885 2.00115 6.99149
Si -1.20636 10.4525 -6.43799
Si -4.13947 -9.90908 -7.49174
Si 8.04414 -0.162754 -7.17597
Si -0.231388 -9.64473 8.13453
Si 4.02506 -3.07172 -4.27654
Si 4.30156 -7.38089 -2.1581
Si 6.03354 -0.337298 -2.42294
Si -1.51781 10.2185 3.43675
Si -0.561294 -2.65191 4.21556
Si 6.87828 2.69913 4.23273
Si 10.0953 -1.92558 -8.83588
Si -0.65104 6.32954 -3.79873
Si -9.44292 -1.5245 -3.91782
Si -4.47362 5.35497 2.22772
Si -5.30378 0.999921 8.21093
Si -8.83894 1.41707 -3.48464
Si -1.88832 10.4341 -3.39013
Si -3.53523 -1.9352 0.456359
Si -1.09039 7.22889 4.13084
Si 2.41673 5.71985 -7.14845
Si -3.96001 3.52916 -1.36916
Si 4.06085 -2.483 -1.30498
Si 7.12976 6.36528 -1.92158
Si 3.79119 -4.42662 4.0961
Si -1.30052 -5.46402 -6.95557
Si -9.42849 7.12258 1.34763
Si -1.29761 7.6133 -6.64702
Si -0.170858 -9.73561 -1.17203
Si -2.69491 -9.99276 0.668105
Si -5.99677 -8.23041 4.08675
Si -8.33263 -1.88157 -6.94061
Si 2.99638 0.13247 3.02999
Si 5.02976 -0.86 -7.56791
Si 5.53749 -10.1233 7.87099
Si -8.84778 -6.38065 -0.439186
Si 4.95084 -8.48586 -7.5629
Si -7.23616 4.9558 0.998181
Si 6.8968 -5.32683 4.15596
Si 7.35053 -2.75813 2.42477
Si 8.63117 2.74096 -3.92486
Si -4.15132 2.34868 1.44967
Si 6.81252 4.64496 -7.85033
Si -2.67994 3.3778 -6.01121
Si 0.450706 0.157819 -8.00814
Si -9.12885 -5.516 4.16062
Si 0.586325 7.19491 6.8152
Si 3.33358 8.66207 -7.20174
Si 8.46779 -4.13153 -2.12849
Si 6.42244 1.49599 0.107902
Si 2.81345 3.41379 3.39598
Si 1.91873 -0.506175 0.0184007
Si -4.44111 8.18991 -6.7823
Si 6.06863 0.00170976 2.77213
Si -6.90047 -1.23966 4.76282
O -0.0706019 -2.25969 2.69959
O -9.99453 9.28083 4.96579
O -6.12059 -0.793108 3.50241
O 2.98184 -7.0247 -1.2719
O -10.3311 2.57638 -7.25834
O -2.03835 -5.28381 -5.50302
O 1.59983 5.757 1.08481
O -2.71332 2.21963 -4.88561
O 6.31629 4.39613 -6.29743
O -1.44318 -4.02101 3.98321
O -1.12575 -4.6224 -3.13402
O -7.87901 -2.88714 1.57346
O 6.2083 -9.15183 4.18046
O 0.565588 2.36053 -4.58527
O 3.40889 9.2051 -5.64334
O -2.60179 9.29113 7.25813
O 2.14391 -3.53906 -7.71828
O -7.56132 4.7456 -3.25272
O 6.21768 9.34533 3.80702
O 9.52533 3.41407 -2.76104
O 0.592196 -1.29869 0.254245
O -6.96934 0.745219 8.26127
O 1.0051 5.02014 -7.41421
O -8.45111 -1.64492 4.70248
O -8.55788 -5.25941 2.7035
O -10.189 6.37235 2.57956
O 8.09599 1.4799 -7.35971
O -2.48103 10.2615 4.75454
O 4.87199 8.11121 -7.43723
O -0.537499 6.39636 2.91354
O -8.29835 1.55969 3.24208
O -4.81484 6.80676 6.09739
O -4.73292 -9.17212 -6.15355
O 9.30419 -0.774858 -7.97816
O 6.53017 0.668148 -1.3092
O 1.47298 0.617029 7.64785
O 5.75469 2.6004 5.39743
O -3.0491 -0.769208 6.36585
O -7.4935 3.89567 2.30474
O -6.47555 -0.846549 -3.01611
O -4.41438 2.5822 -0.110921
O -2.46761 0.134087 -3.00486
O 3.32266 2.16913 6.54995
O 10.1132 2.18907 -0.49514
O -9.52712 -2.16298 -7.9326
O 6.26973 -10.2915 6.37666
O -6.07361 0.196777 -5.47535
O -3.79215 3.24811 5.42543
O -8.36773 -9.79024 1.79948
O 3.51684 -3.94951 -5.58862
O 7.51473 -5.91884 5.554
O -6.71116 -7.90681 2.58743
O -2.6356 7.18774 4.45456
O -1.96599 -1.76192 0.902383
O 5.33604 -4.87643 4.26774
O 4.73623 4.51077 -4.18466
O 2.62922 -10.336 5.9294
O 5.20256 2.32552 -5.2897
O 9.74524 -5.18335 -6.76235
O 0.834999 -2.50059 -5.63204
O -6.74586 -4.10383 7.27797
O 2.89329 9.96733 -8.0651
O 2.87152 -5.65992 4.62554
O 5.94931 -3.17228 1.75761
O -7.4115 -0.612473 -7.46556
O -7.54274 -1.56521 -0.679224
O 0.857555 2.17779 5.60786
O 3.81733 -7.24558 -3.70563
O 8.69662 6.15425 -1.49684
O -4.61668 1.07408 -3.55358
O -0.0916479 7.69103 0.58083
O 3.82618 -8.64865 -8.68791
O 2.42748 8.96977 4.00184
O 2.54534 -7.87828 6.13875
O -5.31484 1.88282 6.8838
O 7.11065 3.35763 -3.93717
O 8.49417 9.4351 -0.310427
O -0.923303 10.1672 9.00681
O 2.18655 4.12825 -3.38299
O -8.07053 -6.48267 7.10017
O 7.87463 1.74468 0.671674
O -1.69579 10.102 -4.91543
O 0.535566 7.08355 -2.97977
O 5.99941 5.30182 8.63534
O 7.18991 9.01147 -7.98149
O -4.12584 1.6733 9.05497
O 5.34921 9.28942 8.20158
O -8.17556 -5.13578 0.282053
O -4.92048 6.68906 -7.18678
O -8.31755 9.71084 6.70832
O -8.90929 -1.55475 -5.48497
O -9.52519 1.65598 -5.00727
O -1.00473 5.32792 0.62378
O 7.16541 6.67319 -3.47344
O -5.76051 5.48721 1.36108
O 8.11171 8.91137 -4.12012
O 8.93894 3.05708 -5.46078
O -10.146 4.77947 -1.12268
O -0.995455 -8.13894 8.08362
O -2.99328 -6.52332 6.58172
O 4.74108 -8.90445 -1.85708
O -8.43942 -2.46828 -3.04595
O -10.4011 -4.69739 4.76188
O 2.81928 -9.53369 -4.29723
O -1.12727 3.6701 5.30533
O 6.94439 -9.93886 -3.08372
O -9.47861 -7.05173 4.49279
O -7.23443 4.22296 -0.444477
O -8.76215 -0.436768 1.66352
O 6.62651 -0.805405 -7.6933
O -9.9619 -2.21288 0.220195
O -7.64204 9.6331 -5.36403
O -0.628497 6.96288 -5.2664
O 7.77156 -6.90169 0.126159
O -0.8201 8.82499 3.67276
O -2.90307 7.82212 -6.53294
O 4.26573 6.91037 8.02019
O -1.67754 0.610285 8.99541
O 4.19609 -3.40121 -0.0372766
O 9.17468 7.75535 3.9822
O 3.51633 5.03851 -8.09214
O 0.19546 -1.29624 8.52765
O -3.00892 2.72638 -2.33959
O -3.97165 -3.41652 0.655535
O -1.25952 -6.64024 3.24284
O -5.37983 4.0144 -7.59873
O -6.44947 5.41095 -5.55579
O -0.77107 -10.2244 6.66286
O 6.0504 -9.60571 -7.83113
O 6.25869 4.91364 1.01072
O 4.18368 8.57346 6.00093
O -2.62631 8.03497 9.5166
O -5.50002 -7.00648 6.9439
O 3.23979 4.08677 2.03398
O -1.49039 -1.36725 4.57137
O 7.35278 -5.09265 -7.91283
O -2.39806 -1.77214 8.67198
O 0.95445 -6.3413 0.245391
O 1.51851 -8.7752 -7.83654
O -6.97334 -8.07869 5.33889
O -0.67808 9.04849 -6.98731
O 9.14927 -3.24186 -8.53401
O 7.9288 -3.38728 -6.14315
O 3.73926 3.78223 4.56959
O -9.79342 7.0662 8.1489
O 8.33192 10.0482 4.95813
O -8.87979 6.39001 -4.73393
O 5.73641 3.93372 -8.85384
O 9.64179 -8.67973 4.31787
O -2.29765 2.61738 7.46214
O -1.32894 4.01244 -6.28448
O -6.47838 6.41101 -1.57939
O 8.25821 -0.265874 -5.54051
O -7.96208 -4.94747 5.21302
O -4.40366 -1.05221 1.50217
O 10.3479 1.22941 1.83776
O -4.86951 8.57902 4.19318
O 6.67714 6.21605 -8.12569
O 6.16259 6.66336 2.99695
O 6.44358 7.20667 6.99889
O 2.84986 1.77006 3.16987
O 6.33738 -5.14521 -5.65269
O 4.27246 8.39353 2.38944
O -6.68673 -5.70071 -6.23061
O -9.97523 8.72337 -4.64193
O -3.59004 -1.44016 -1.09115
O -10.2322 7.03964 -2.58225
O 1.67113 0.51987 -9.00039
O 9.36877 -0.379186 0.0403509
O -4.14088 3.76343 2.25126
O -2.89265 -9.02371 6.69642
O 6.98538 7.43668 -5.9689
O -10.3599 7.13116 0.0352945
O 1.31193 -9.3905 7.99565
O 9.17941 -9.66014 -4.73021
O -0.330192 4.81037 -3.68082
O -0.433838 -4.0977 -7.19417
O 4.39761 4.41924 7.00807
O -5.62029 4.49333 6.90467
O -2.49362 7.14089 -0.757427
O 6.70008 4.03666 3.42121
O 10.2037 -7.8438 -3.00673
O -0.586598 -9.94034 -2.72382
O -9.51669 -10.1689 8.81551
O 7.79992 -9.10258 2.389
O -4.88832 -4.90915 5.6666
O -3.2841 6.09047 1.48348
O -4.63822 9.54676 -7.58958
O 6.45334 -9.10114 8.79936
O -4.78348 -7.32247 4.5479
O 7.8773 4.97797 6.67033
O 5.62115 2.79357 -0.163162
O -6.60619 8.54949 -3.16594
O -0.295471 -6.77661 -6.88576
O 2.68832 -8.23624 1.03215
O 7.59594 -3.95716 3.53593
O -5.73598 9.42685 1.94445
O 5.56922 -5.39774 0.726846
O 7.00248 -1.33259 3.06529
O 0.233701 4.63259 9.7087
O 9.65681 -5.18314 -2.41251
O -4.89594 -7.79887 -3.93659
O 3.07755 6.50174 -3.21438
O -1.7511 -6.48542 -0.26768
O 3.28295 -3.13181 4.82865
O -1.55692 -9.77491 -0.343766
O -8.67608 7.35546 5.7953
O -10.4367 -6.66092 -0.106088
O -2.16706 10.385 1.97301
O -6.36149 2.97654 4.64931
O 0.32865 -1.50116 -7.96263
O -7.77067 1.77891 -6.75753
O 2.21256 -1.55035 6.71289
O -1.04337 -4.9358 1.55547
O -3.03841 -9.46141 -3.27882
O -6.75572 -7.5673 -8.06356
O 9.40255 6.74926 -4.77544
O -5.98942 -3.25205 -2.45993
O -9.52899 -4.20415 7.10425
O 1.92366 8.9619 1.39152
O 8.74326 -9.81626 -7.40597
O -6.98637 6.65177 7.58067
O -3.84837 -2.04115 -3.47463
O -2.12172 6.62756 -3.21453
O 2.98463 4.99001 9.07512
O 6.75205 1.30922 3.38956
O 7.76376 -3.91713 -3.57732
O 8.25105 2.98487 4.97052
O 7.14234 -10.4953 -5.74313
O 1.12271 5.86314 7.47152
O 10.3254 -1.55537 -10.2676
O -9.15641 2.50375 -2.4036
O 9.94529 -7.76728 -6.24177
O -4.49338 6.23428 8.61565
O -0.444316 7.85721 7.89153
O 3.72343 -4.27468 2.48253
O -8.79154 4.95292 6.91221
O -7.38218 9.28943 4.20915
O 2.4264 7.33637 -7.28216
O -6.02709 -2.45095 5.43085
O 5.57446 -2.89628 -4.55734
O 2.87547 5.38802 -5.60567
O -3.69644 -7.74812 -1.46175
O 9.67226 9.13594 8.92765
O -5.68882 -9.80863 3.90368
O 3.40029 -10.1941 2.42935
O 3.96487 4.95616 -0.250838
O -3.70047 -4.61511 -3.5421
O -2.66565 1.75367 1.72586
O -4.4491 7.78789 -2.39314
O -4.34737 -2.94796 7.26892
O 9.74192 -7.87576 1.8393
O 4.08028 -9.50619 7.78676
O -9.901 -10.2212 -6.37022
O 8.82204 1.15009 -3.65474
O -0.590443 0.15112 1.92518
O -7.08668 0.100421 5.73976
O -4.61904 -8.93599 -8.69092
O 5.95312 9.98935 -0.915665
O 2.9009 1.24746 -4.87891
O -0.241891 -9.29646 -6.20923
O -5.8338 -10.2006 -4.17859
O -0.518264 2.36504 3.10006
O -1.06628 6.28255 -7.60679
O -1.55849 -2.22085 -2.28294
O 9.00019 -9.28828 9.05388
O 0.641801 9.94956 -0.717491
O 0.780841 -2.78179 5.05229
O 9.18341 -8.95023 -0.315753
O 4.23322 -0.0828971 -8.69926
O 0.877236 -8.55106 -0.876171
O -3.39491 -4.93661 2.70729
O -8.79747 3.57303 4.71335
O 10.1856 -2.25634 5.75108
O 9.63638 -7.05137 6.39116
O 2.25602 -0.774068 4.21177
O 8.98432 -2.92781 -1.23802
O 8.49913 6.68475 8.44925
O -0.235414 6.98645 5.44602
O -5.25107 8.54248 -5.45345
O 3.50613 -7.919 3.56112
O -0.226912 -4.30094 -0.909761
O -4.89497 -6.31233 -9.12187
O -1.86573 3.02746 9.98945
O 2.35665 9.02397 -3.34916
O 9.01973 -4.58338 6.98858
O -8.57167 2.2417 6.79205
O -5.59225 -3.59178 -4.96091
O 2.04276 7.83382 -1.07402
O 4.53393 -0.221664 3.20544
O -3.66341 0.0149648 3.81763
O -7.36801 -8.94857 7.64139
O 1.95419 -10.0204 -10.2367
O -3.76495 4.53615 -5.87766
O 9.90865 -1.40056 -3.86148
O 0.366628 2.72682 -2.11319
O -8.05591 -7.65402 0.265574
O -2.56472 -10.0679 -7.1511
O 1.8217 3.61816 -0.197444
O 5.59217 -6.55009 -1.62137
O 1.31586 3.81648 3.76426
O -4.71528 -0.50949 8.12627
O -2.54215 -6.93498 -3.50156
O 5.28477 -8.31902 1.83243
O 1.82484 -7.51574 -5.6017
O -0.376025 2.19685 0.405121
O 7.37871 -4.78264 -1.154
O -0.852997 1.07003 -8.23532
O 1.65091 8.31447 6.47955
O 5.86089 0.524498 1.21842
O 1.64898 0.998918 -0.46377
O -2.59654 -5.57001 -7.89092
O -9.29736 -0.251236 6.71014
O 7.34493 -0.924382 -3.19456
O 6.58095 8.67973 1.31643
O 5.33177 -1.5902 -1.66936
O -3.27205 4.74405 -0.697549
O -2.26189 9.09547 -2.58656
O 9.43496 8.1545 6.5399
O -2.25473 5.56409 10.037
O -5.14288 1.29372 2.15726
O 10.1797 3.57161 6.52271
O 2.90043 -1.83887 -4.34531
O -6.25947 -9.559 0.498981
O -6.04031 -4.69531 1.73847
O 4.17812 -8.50151 -6.14397
O 8.40536 5.66947 2.44286
O 1.09681 -7.48214 3.92373
O -7.28742 -3.16604 -6.79716
O 2.51638 -0.412412 1.57297
O 3.86134 -3.378 -2.66049
O -3.10722 2.59692 -7.65691
O 8.56047 -2.50075 1.34291
O 5.05387 0.379897 -3.49725
O 1.40059 3.32663 7.92824
O 0.960794 0.536639 -6.50933
O -9.14809 -0.0835964 -3.20712
O -4.02227 10.1705 0.21138
O 0.982709 -0.304881 -3.99347
O 9.77577 -10.3119 -2.24481
O -4.76877 6.00715 3.61878
O -8.61966 3.92381 -5.61722
O -8.20608 6.20812 0.996384
O 2.85667 -1.43296 -0.919837
O -9.41806 -9.90772 -3.98424
O -6.17461 8.9314 -0.570778
O 5.75586 -7.15202 -7.34186
O 7.86505 -6.93598 8.11656
O -7.02055 -8.3003 -5.61937
O 8.28563 3.99043 -7.80091
O -4.1905 -6.06625 0.531933
O -0.958681 3.64474 -8.59791
O -9.66916 -9.07002 6.46192
O 9.49386 5.2804 4.70603
O 4.59813 -4.99498 -7.68536
O -7.20469 1.48635 -3.71772
O -4.92066 -4.35245 -7.40422
O 6.37281 5.00816 -1.44483
O -3.06658 -8.39546 0.927628
O -9.03044 8.60829 1.73065
O 4.43017 -2.33691 -7.34528
O 10.2291 -10.3807 2.36849
O 0.84385 -2.76544 -3.05248
O 4.74447 -0.0119901 -6.19788
O -1.00736 -7.71823 5.51337
O 4.69307 10.0423 -3.33222
O -8.99904 -6.27633 -2.05156
O -9.99869 10.3446 0.00079291
O 6.70915 7.62411 -1.11138
O -5.43133 1.39283 -7.77424
O -10.1845 -0.0814242 4.08303
O -10.1189 -6.02125 -4.54166
O -5.27634 4.10366 -2.11545
O 6.83163 -6.70091 3.22017
O -8.8765 -6.55134 -6.89326
O -0.736925 -9.37852 3.57743
O 3.561 2.45677 -8.90552
O -2.03115 1.3147 5.2563
