588
Atoms. Timestep: 1790001
Si -9.21206 2.72189 8.83172
O -9.79429 3.06568 10.3922
H -10.4883 2.50334 10.7156
Si -6.28961 2.07874 9.83856
O -6.57652 2.10849 11.5204
H -6.20912 2.87025 11.9531
Si 1.0787 -5.69715 -10.4382
O 1.17275 -6.35312 -11.9918
H 0.387077 -6.80001 -12.2843
Si -1.34364 8.14118 8.79137
O -1.55579 8.2864 10.474
H -2.29995 8.82361 10.7192
Si 0.109326 -0.484855 9.02399
O 0.223993 -0.157582 10.7002
H 0.812283 0.553617 10.9252
Si -1.28324 4.9887 9.04666
O -0.480081 5.00773 10.5224
H -0.783311 5.68706 11.1132
Si 3.08441 -0.810961 7.98841
O 3.65811 0.706589 8.62768
H 4.21448 0.633291 9.39422
Si -0.409031 -2.97783 -10.0586
O -0.329951 -2.03881 -11.435
H -0.510298 -2.53814 -12.2228
Si -9.27242 6.50193 -9.24499
Si -6.88685 6.88298 -8.771
Si 6.02244 9.05906 1.78728
Si 4.48626 -2.78202 3.49325
Si -2.5839 9.77955 -2.01096
Si -2.14697 -3.18778 5.47546
Si 0.213986 -7.96108 -3.01055
Si 8.77447 -6.1874 -8.138
Si 0.759062 -5.34468 -4.4225
Si -7.43461 4.04254 0.254388
Si -6.10708 6.65119 7.59171
Si 7.48889 3.00804 -6.40707
Si 0.120129 2.50172 7.62231
Si -1.83083 -1.41322 -1.61836
Si -4.58025 7.31741 -5.28679
Si 10.3799 2.70259 -3.37427
Si -8.5633 -9.40364 0.812964
Si 10.163 -3.60396 -7.31749
Si 5.69107 10.2757 -4.02118
Si 3.96341 -5.76648 -1.17136
Si -7.65697 -10.2277 4.90687
Si 1.82627 -1.91643 -8.08159
Si 2.22847 4.60741 0.940921
Si -6.91452 9.12616 0.450211
Si 0.857265 -4.04762 4.86585
Si 7.54076 -3.33666 -2.59814
Si 6.39643 -4.12365 -8.04016
Si 6.57708 -6.2034 2.67318
Si 9.37498 1.56019 2.21708
Si 3.24434 -3.83036 -3.59651
Si 0.93741 9.28365 7.05932
Si 3.20369 -0.335118 4.8388
Si 0.894204 -0.0535352 -2.51068
Si 5.48567 -2.71811 7.91914
Si 7.81703 3.8439 -1.94148
Si -7.79648 6.66104 -1.22155
Si -0.0149125 7.78431 4.34651
Si -6.0984 -5.22303 6.33264
Si 10.0846 -2.74283 -4.35566
Si -3.90534 -10.0551 -8.78787
Si -5.54446 6.79369 4.54124
Si -1.87813 -9.79918 -4.57874
Si -2.25385 3.98732 2.61684
Si 4.08213 10.1797 3.90409
Si 5.38546 5.68633 -3.11723
Si -5.27745 -4.37673 -7.72225
Si -3.24009 -5.15616 7.58064
Si -3.12673 10.1994 7.26845
Si -9.26363 -4.81991 4.02197
Si -1.60321 6.99301 -4.84142
Si -3.59108 -3.70699 -2.47699
Si -9.25355 -7.92661 3.63204
Si -8.43469 4.79435 6.64249
Si 4.39744 6.0451 5.98381
Si 9.28681 1.40618 -8.07509
Si -8.3554 -7.51266 6.36126
Si -6.28597 -4.50156 3.30229
Si -9.72117 3.62342 -8.46519
Si 9.955 0.966208 6.91566
Si 1.11662 -7.10664 4.00778
Si 2.59188 -6.89859 -6.60072
Si -4.25914 4.1555 8.527
Si -0.505414 -9.14991 2.26975
Si 8.86899 8.00318 5.71456
Si 8.12946 -9.18925 -3.0844
Si -4.66729 5.21784 -7.76887
Si -7.18536 -0.0815552 -6.66532
Si -5.33778 3.21225 2.34351
Si -2.59442 -2.22787 8.38781
Si -5.23927 -0.665836 8.55901
Si 3.11461 6.98135 -5.7118
Si 7.37282 5.45692 4.87289
Si -10.165 -3.62528 7.00412
Si 3.36469 -3.18824 0.585334
Si 3.12771 -8.37788 -2.15928
Si 6.11249 7.54158 -5.58552
Si -1.75883 -3.31616 0.902845
Si -4.65631 -9.27832 -5.94991
Si 3.96615 -7.98742 2.79355
Si 10.0834 -8.93781 -8.59794
Si -6.66506 9.91076 -9.08139
Si 7.3382 -5.39595 5.65509
Si 10.232 -10.4349 -1.23226
Si 0.607328 0.52737 3.21182
Si 2.7325 3.63347 6.37105
Si 4.01659 9.02131 6.83996
Si 6.87436 0.298066 -5.22083
Si 1.81764 7.43296 -0.434077
Si -5.26908 5.39545 -2.87049
Si 9.93342 9.93785 7.62944
Si -4.20528 1.74246 6.58667
Si 3.43235 -4.56681 -8.59436
Si -7.44464 -2.34414 6.92263
Si 9.02099 9.85155 1.38912
Si -1.62285 -5.46209 -6.45235
Si 7.96116 -1.43207 -7.77076
Si 8.71333 -8.51458 2.9361
Si 9.30332 7.62183 -5.15203
Si 0.97147 -8.51423 6.94005
Si -9.6019 -0.873937 2.09096
Si -2.74846 -5.73596 -0.119825
Si -10.1946 0.267442 -5.38981
Si -6.42837 -7.8423 -1.10709
Si 0.876921 -2.44086 2.25214
Si 0.299202 7.71424 -7.04455
Si -6.01387 -1.91475 -2.4469
Si 1.46014 9.34426 2.14173
Si -2.28284 1.32349 -0.473243
Si 5.02148 3.40781 1.69336
Si -7.85242 -8.42775 -8.12268
Si 9.26519 5.94455 0.0484954
Si -7.34 -0.389533 -0.106516
Si -6.32665 9.77576 7.67256
Si -4.65535 0.346219 1.48494
Si 9.99593 4.64447 -5.69349
Si -1.63938 -8.59809 -0.585585
Si 3.75678 -7.12265 7.44635
Si 9.70967 -3.48911 2.16911
Si 0.0850575 2.93521 -3.69988
Si -5.07412 -7.40194 -8.32266
Si 9.22921 -8.04625 -5.82763
Si -6.80514 2.59863 4.99435
Si -9.70991 9.51588 -9.1088
Si 7.9902 -10.2195 5.49982
Si -2.62498 -2.88041 -7.98256
Si 6.70774 6.12852 1.85865
Si -9.45367 9.72732 -5.96217
Si 2.03887 5.39803 4.08787
Si -10.445 7.72013 -2.17558
Si 7.51608 -2.60064 4.31835
Si -8.6433 -9.63049 8.62104
Si 6.89703 -7.9925 10.2034
Si 6.69063 -7.39193 -1.02994
Si -2.00369 -0.23751 -6.16025
Si -1.53129 5.27753 -7.29753
Si 0.105262 -7.60713 -8.15833
Si -2.37167 4.16939 -1.83499
Si -8.04002 2.09024 -1.8661
Si -6.67419 9.67276 -4.80431
Si -6.30066 2.78373 -4.30875
Si 4.85046 -7.78228 -4.73418
Si 2.98249 4.1651 -4.34205
Si -4.33367 -5.45975 -5.03311
Si -0.416683 2.37361 -6.80487
Si 8.02442 2.34114 4.90591
Si 2.22985 1.05696 -7.46585
Si -2.79501 6.83956 3.33214
Si 6.03502 -5.61862 8.5262
Si 4.79291 -9.58683 0.146371
Si 9.8912 -6.44705 7.10576
Si 0.960779 -0.826916 -5.42275
Si -5.133 -6.67802 1.53565
Si -4.72669 8.84802 2.56217
Si 3.78071 8.21575 -2.75952
Si 7.88467 -5.04961 0.165834
Si -5.07558 -9.31224 3.30747
Si 5.90706 -4.70908 -4.99444
Si -7.91128 -2.9705 -7.45788
Si -6.95228 -6.51678 -3.70815
Si -8.67506 -0.0588007 5.01663
Si -3.92448 -2.43875 2.8649
Si 5.72849 -9.51214 7.61973
Si -1.15326 10.4942 -7.60106
Si -1.88141 -7.957 7.39837
Si -5.64268 10.3885 -2.07007
Si -8.52995 6.07745 3.913
Si 6.96605 1.58691 0.0699207
Si -1.55186 1.88369 4.98891
Si 9.65865 -8.6894 9.3505
Si 4.95238 2.1602 4.60663
Si 6.43984 -0.439352 -2.18872
Si 3.58836 -4.44426 5.82521
Si 8.30609 -1.66629 6.93265
Si -8.91099 -8.29461 -5.15446
Si -6.76506 2.86136 -7.4338
Si -0.0224985 2.54546 0.991087
Si -4.79271 0.0762452 -4.52195
Si 3.52724 -1.17909 -1.84122
Si -1.18285 7.03269 -1.69565
Si -2.40695 -9.4634 4.79609
Si -9.92509 8.86981 3.55684
Si -8.00418 -3.59255 -4.22652
Si 4.64255 2.19836 -6.19058
Si -9.84165 4.08077 1.8578
O -7.87285 6.6682 -10.0169
O 3.06585 -7.05707 -1.20971
O 6.81103 0.0576425 -3.66682
O 9.51066 -2.71262 6.93361
O -0.362764 7.72274 -5.5944
O 4.68582 -8.41319 7.12528
O 2.77167 9.68973 2.96575
O 9.91189 -5.07501 -7.8717
O -1.72483 5.67084 -5.7194
O -3.16652 -3.11238 1.6507
O 9.2181 -7.55563 -8.94515
O 2.25547 -0.337463 -8.29916
O -3.29091 -0.104246 -5.15391
O 0.0589463 -4.43395 -10.4614
O 3.70954 3.02742 -5.1138
O -2.39482 -2.26622 6.75097
O -8.2157 9.72185 -9.73752
O -6.84797 -6.73489 -2.11273
O -7.63562 7.97251 -0.355422
O 7.72553 7.60641 -5.72286
O 5.76088 2.17042 0.941832
O -6.03265 -9.93582 -5.32769
O -3.97983 3.07026 7.34639
O 7.14317 2.70377 -1.06326
O 7.07965 0.270241 -0.869257
O -10.3143 -2.29051 1.85957
O -2.62332 -6.58035 7.80918
O -8.3924 -0.69774 1.05655
O 4.89617 7.11346 -2.41454
O -1.86588 10.141 -3.44984
O 4.5999 7.30144 -6.30761
O 1.70531 0.513958 -6.04077
O -1.48936 -9.64238 3.47495
O -8.06948 9.12178 -5.32359
O 7.40391 -3.79456 5.41232
O -2.56492 8.89637 7.97791
O -4.66431 10.4198 2.45416
O 0.0917254 -7.86885 3.02354
O -6.67835 -7.6061 -8.78074
O -2.94408 1.40773 5.69611
O 7.5525 -4.23569 -1.22594
O 6.46901 1.90076 5.08915
O 0.683473 1.67603 2.13895
O -0.569879 -2.92818 1.90777
O -5.5152 -7.29057 0.0719194
O -0.696005 -0.73169 -5.50198
O 1.90673 7.52951 -6.71546
O 10.3095 5.1857 1.01256
O -8.10923 -8.4357 7.60624
O 0.65087 -0.848363 2.39722
O -2.59128 2.83841 -1.00381
O -8.05557 3.34931 -8.23038
O -2.06521 8.35133 -1.42003
O 8.71126 -6.12355 6.06327
O -10.0351 7.89966 -9.30758
O 1.50953 -7.56777 -7.40852
O -0.522799 -9.06956 -8.03745
O 1.49795 3.79277 -3.75336
O -10.1629 9.29936 -1.98133
O -5.87459 8.45419 1.47408
O 6.34941 -9.00745 9.01785
O 3.68819 -4.89103 -2.48076
O 1.3616 -3.17883 3.60059
O -2.53842 -2.50282 -2.58953
O 10.0929 3.00021 2.22747
O -4.27525 -0.908419 2.40088
O -8.98741 5.6576 5.43449
O -0.643095 2.29738 6.21173
O -4.125 6.19378 3.94175
O 4.99187 -4.44073 -8.65278
O -0.314328 2.54952 -5.21319
O -3.0819 5.19887 -7.89629
O 1.69665 8.4388 0.816982
O 1.71227 2.90486 7.31909
O 7.36071 -0.905124 -6.29996
O -5.75022 -5.25165 4.69231
O 6.77138 -4.13299 -3.78758
O 10.4634 -5.00994 7.6956
O -5.30954 8.3195 4.00205
O -7.63944 -8.51768 -0.199069
O 2.85446 5.42672 -5.31885
O -7.47193 3.64037 5.95913
O 1.14928 3.53424 0.480049
O 4.01878 2.86457 5.68136
O 6.90524 -5.81066 4.18117
O -1.27673 -8.85278 0.937995
O -6.95104 -2.69941 -3.42623
O 8.59448 -6.83957 -6.66194
O 0.0146787 1.07813 8.37111
O -7.86979 -3.33565 -5.81955
O 2.05613 -3.95147 5.96478
O 3.8194 -9.39068 -1.1477
O -0.908872 -8.58496 -4.03862
O 8.9143 3.01697 -2.83186
O -6.81788 -3.97247 -8.01529
O 0.871113 6.44292 4.45465
O 3.1059 -5.60001 -7.3979
O 3.59944 -1.63112 3.97364
O -1.84515 -2.9355 -9.41813
O 0.627331 -10.2652 1.89589
O -3.9859 -9.16745 4.4513
O -4.86308 -5.85244 -8.29323
O -2.98592 -2.63018 4.20204
O 0.830286 -5.63716 4.50442
O 1.93201 -2.75222 1.09769
O 5.87281 5.58784 5.55178
O 8.49023 -8.38351 10.3689
O -9.10449 7.47824 3.31641
O -0.572925 -3.4473 5.25688
O -6.39372 -1.59895 7.93829
O -7.8519 -1.17813 5.82271
O -5.71366 -8.99776 -1.93392
O -1.25851 6.91491 -3.28423
O 4.59019 -3.46209 6.75642
O 6.87823 -1.96562 7.61498
O -6.36896 8.16251 8.09916
O -1.9183 3.15451 3.98498
O -6.09441 9.90459 -0.642952
O 5.68426 -6.33875 -4.84655
O -4.8528 6.22376 -6.42953
O 2.1428 -0.323764 -1.65585
O 3.17358 7.72529 -4.27323
O -2.49674 0.0515518 -1.45935
O -6.24961 3.36573 3.67807
O -5.97304 -0.23138 -5.62644
O 9.34225 8.51111 7.19208
O -5.31683 -3.18726 3.03761
O -5.194 10.3134 -9.61909
O -4.27633 -10.2076 -7.21664
O -2.42679 -1.43395 -7.26915
O 0.365327 1.49585 -2.8861
O 7.93844 6.36404 0.877142
O -7.84548 -4.22045 3.59805
O 2.32082 -7.84905 7.63202
O -2.54737 -9.40115 7.87271
O -7.09918 3.10498 -0.997706
O -1.82161 -2.2138 -0.270205
O -0.0932829 9.23131 -7.58079
O -7.69376 2.27019 9.04612
O -8.47506 -8.6904 4.98263
O 6.00675 -7.80221 11.5142
O 10.023 -3.66643 -5.672
O -2.02349 -4.12966 -7.18
O 7.66794 1.64097 -5.5287
O -2.88596 4.62734 9.12384
O -6.81883 1.20724 -7.53628
O -10.4538 -4.53557 3.03389
O -8.9118 -6.43249 4.06542
O -8.97751 6.95073 -2.21041
O 1.78578 0.309283 4.29444
O -2.93709 -6.0298 -5.68765
O -2.36952 10.3529 -8.69209
O -5.24722 -0.737647 -3.25187
O 7.82436 9.22548 5.28865
O -9.50474 -3.14442 -3.81041
O 10.3107 0.303335 1.89489
O -3.20124 -4.84391 -1.38593
O 7.29641 -7.95714 -2.39663
O 9.14889 -4.28759 0.851383
O -5.79514 0.506047 9.53008
O 3.9175 9.56842 5.34701
O 0.50093 8.43695 3.03509
O 9.95276 7.0863 -0.809711
O 2.59682 -7.34458 3.25128
O -9.04587 4.79827 3.02523
O 4.27089 -9.2208 3.83069
O 9.63016 -9.06545 -7.05174
O -7.19323 -10.4351 8.7081
O 5.45411 -6.31633 -1.18258
O -4.60862 0.439949 7.51585
O -8.89478 -2.7892 7.47901
O 7.93389 3.98409 4.7495
O 6.60026 4.72929 -2.58593
O -1.65346 7.44359 4.34651
O -1.21551 6.53373 8.5437
O -6.96901 -1.47348 -1.18567
O -5.60854 6.02127 -8.78483
O -5.11225 1.69413 -4.38089
O 9.5805 -7.5617 8.21781
O -0.29446 -8.40571 -1.53456
O 7.59486 9.2968 1.8021
O 6.86417 -2.54933 -8.33126
O -1.50939 -10.3225 -6.0419
O 2.33304 5.92561 0.0159009
O 3.51836 4.96172 6.92002
O -2.51991 10.2833 5.76948
O -4.73525 10.1861 7.37873
O 3.54348 -5.99602 6.28421
O 1.3067 -0.757209 -3.92957
O -10.3023 4.10154 -7.0273
O 6.33328 -4.27351 -6.47903
O -1.79565 5.55211 -1.2318
O 2.47385 -5.17671 -9.83656
O -9.22308 -9.86008 -5.17789
O -0.870418 0.781172 3.95267
O 8.46021 4.15171 -5.80649
O -4.1301 9.71725 -2.292
O -6.60785 8.46239 -8.44447
O -3.40154 7.96968 2.39734
O -4.26606 -3.21181 -8.13807
O -4.95584 -7.96315 -6.85886
O -4.8755 -2.92276 -1.9487
O 6.84014 -5.18037 1.42207
O -7.12743 -9.8659 -8.13213
O 6.99633 -6.48789 9.3982
O 10.3221 -1.12091 -4.78781
O 5.80858 7.46466 1.67339
O 7.22579 6.09271 3.37884
O 5.12326 -6.90316 2.65451
O -2.01977 5.52318 2.69443
O -4.83224 -5.28589 7.28464
O -9.56692 10.2055 7.8708
O 5.32342 0.82194 -5.6422
O 2.67366 8.09749 -1.63006
O 9.53201 7.64327 -3.51931
O 10.2222 8.88847 -5.48868
O -7.65465 -5.08679 -3.92409
O -10.3979 4.00337 -4.39505
O -7.83887 10.1725 1.17906
O 5.31274 9.97759 0.619383
O 5.93834 -4.05253 8.82018
O -6.87875 2.9509 -5.83178
O 4.82423 -0.317245 -2.06676
O -1.2082 3.41287 1.54512
O -8.767 9.82589 4.17452
O -0.772815 1.40072 0.0327657
O -7.72434 1.27108 4.73011
O -9.87054 -7.02506 6.38523
O 3.47371 5.98044 4.62545
O 1.13971 -8.04963 5.38791
O -9.69769 -8.8622 9.51855
O 4.32656 0.726825 4.4646
O 4.38164 -4.09947 -4.70871
O -10.1854 1.70177 8.09908
O -9.81823 -9.83752 -0.0616678
O 3.57082 -4.66334 -0.0343232
O -1.49187 1.13678 -6.89942
O 5.93503 3.21484 -6.44233
O 6.05889 -2.45672 3.71628
O 6.81511 -1.97786 -2.20988
O -6.46378 -9.72146 3.97193
O -0.51827 6.55696 -7.77856
O 8.55219 1.53774 3.61071
O 9.01537 -0.250205 7.48549
O -9.93463 0.419825 5.88625
O -3.85661 4.67948 -2.36765
O 0.564446 -2.36759 -8.97489
O 1.98594 5.03928 2.46618
O -6.58918 9.82008 -3.17956
O -8.23353 6.51278 -7.88433
O -9.51869 2.55024 -2.19873
O -0.89231 -6.60026 -7.32753
O 6.44463 -5.69826 6.93229
O 4.02801 -8.92396 1.44103
O -0.320458 -7.91426 7.62472
O -2.30929 -9.908 -1.16875
O 8.71639 4.97498 -1.08756
O 7.92179 -1.4081 5.33425
O -9.84411 5.01281 -9.29833
O -6.10809 -5.5423 2.10612
O 5.89276 6.31281 -4.52073
O -1.19803 -1.39713 8.84361
O -3.02878 7.68539 -5.25625
O 10.4025 2.30122 -8.82242
O 9.44696 -10.1346 6.31302
O -2.03526 -8.1908 5.74727
O 4.48774 7.50238 6.65555
O -7.23474 -6.36867 6.36102
O -10.3814 -7.61296 -5.21114
O 2.45092 8.93902 7.32511
O -3.89693 -4.43869 -3.89473
O -5.98081 4.23122 -3.64561
O -5.9061 -0.022008 0.487425
O 3.67328 3.82675 1.04238
O 9.47445 -9.58458 -2.29833
O 8.59996 -3.00218 3.2019
O -3.2936 0.896188 0.75462
O -9.41246 -3.11737 -7.81623
O 0.304095 -6.39581 -3.32622
O -0.485871 -4.95292 -5.33958
O 8.93068 -2.9568 -3.29867
O -5.22915 3.17165 9.4237
O -7.90003 -7.69829 -4.14402
O 8.14907 2.42288 -7.72515
O 4.09255 -7.81249 -3.33208
O 0.902641 -10.1309 6.94305
O 10.2057 -8.19663 3.50349
O -2.846 -3.92523 8.55022
O 1.77971 -6.23198 -5.3331
O 4.5623 -6.26546 8.50794
O -0.992276 3.82547 -7.3944
O -5.54062 1.97684 5.68805
O -7.53343 5.88132 7.40822
O -4.08629 -8.43293 -9.10864
O 5.95677 9.04215 -5.02385
O -3.80794 3.69034 2.34568
O -9.17277 3.91966 7.78927
O 3.05775 -0.660836 6.39222
O -9.1598 -0.655218 3.60498
O 0.403709 8.69222 5.64282
O -8.70782 -8.50775 2.24609
O 4.0968 -4.12344 4.3493
O -5.49171 -6.41414 -4.34778
O 0.945853 2.06471 -7.62971
O -6.73336 -3.73302 6.52953
O -7.03911 10.1765 6.24351
O 0.387443 -6.82499 -9.50538
O -3.80427 -5.88314 1.08508
O -6.96179 6.33891 4.06339
O 7.87322 -6.55784 -0.362143
O 9.91398 6.23958 -5.68836
O -0.61567 3.74677 8.2838
O 10.0322 8.30328 4.65088
O 10.1206 0.788061 -6.82154
O -1.17493 3.66155 -2.90719
O -7.37952 -1.44877 -7.47306
O 9.1714 9.83374 -0.232322
O 8.32 6.5495 5.63151
O 7.4925 -5.26535 -8.52036
O 4.56243 9.63108 -3.10375
O -3.39509 -9.18469 -4.90479
O -8.61259 0.0967259 -5.79706
O -7.97172 0.757426 -1.02944
O -5.25278 1.60548 2.20327
O 4.88443 3.01047 3.20933
O 1.45808 -1.87896 -6.50427
O 8.25679 1.62682 1.08473
O -8.21461 -7.97141 -6.61436
O 4.23485 -3.13047 1.96758
O 4.14614 4.72461 -3.25216
O 1.55555 -1.00829 8.48593
O -5.03638 -4.57554 -6.15406
O -5.11286 5.48753 8.14421
O -2.62786 -4.62605 6.08517
O -4.75425 6.47956 -3.92029
O 3.595 1.79514 -7.33763
O 9.14449 -2.44524 -7.58832
O 5.41267 9.62481 3.16872
O 1.75852 -8.57983 -2.96575
O 7.0795 -10.3738 -3.17218
O 2.92399 -3.03805 -8.37029
O 4.32785 -1.74104 8.45346
O 10.2881 9.43771 2.28629
O 3.81436 -2.11559 -0.531123
O 10.1479 -10.3861 -9.33769
O -1.54521 -4.78605 0.414552
O -5.49255 6.82031 6.15785
O 1.86819 4.1308 5.06475
O -9.44045 9.72731 -7.53333
O 8.4633 -0.0651784 -8.50716
O -0.32582 -1.00042 -2.02332
O -9.80483 -4.17054 5.42231
O 7.80449 -7.27735 2.54856
O -0.0680016 8.91657 8.23461
O -5.11429 -7.91869 2.52535
O -2.28052 -7.16852 -0.635318
O 4.9773 10.0604 7.64969
O 1.71172 -4.15453 -3.87183
O -3.95499 -1.63982 8.84157
O -6.27615 6.22201 -1.858
O -6.1411 3.92327 1.15888
O -5.52163 8.58122 -5.28454
O 6.08034 -8.62689 -0.191556
O 8.8058 -9.55185 1.75806
O -9.36051 -8.49953 -8.77192
O 9.06695 1.98382 6.08289
O -7.97487 5.43457 -0.163877
O 6.06093 4.70065 1.64317
O 3.42174 -2.29122 -3.01321
O -7.31617 2.03698 -3.27183
O -8.69792 3.43872 0.98948
O 8.10408 -9.3768 4.14402
O -5.45941 3.82484 -7.68875
O 0.286992 7.1954 -1.11018
O 9.32734 -10.2291 8.86027
O 8.39974 -8.7214 -4.64854
O -10.4792 1.42219 -4.29622
O 6.83026 -9.68103 6.49546
O 5.33094 -9.35042 -4.64558
O 3.85122 -7.73378 -6.0207
