582
Atoms. Timestep: 1790001
Si 4.33556 3.95624 -7.63951
O 3.19964 4.26367 -8.89262
H 3.62076 4.56228 -9.69011
Si 7.11419 3.84665 -9.19178
O 6.90534 4.22161 -10.8339
H 7.63456 4.05553 -11.4197
Si 8.65663 -8.55087 8.38349
O 8.15307 -9.37467 9.7764
H 7.21131 -9.46479 9.86278
Si -10.314 -6.3008 9.35075
O -10.3859 -6.64162 11.0711
H 9.87416 -7.12917 11.3779
Si -1.98645 4.77788 10.2848
Si 1.94091 -2.04174 8.57241
Si 2.31004 -4.48428 8.46179
Si -4.45195 4.27757 9.99525
Si -7.30714 -4.65382 0.40142
Si 0.550219 -6.73568 7.4307
Si -0.0695896 -4.84977 4.93634
Si -6.60258 2.09457 -6.89885
Si 4.52274 -9.6275 -7.89946
Si 8.39538 -9.11002 1.05808
Si 1.95034 -5.92913 -7.78854
Si 0.921732 -0.45715 2.26102
Si 10.2388 7.89009 -1.70366
Si -2.25108 3.0959 4.73284
Si -7.15582 4.33186 3.91362
Si -3.32093 7.90432 2.66431
Si 4.8657 -1.93376 2.82677
Si -0.662908 4.83359 6.86098
Si -8.15208 -2.23912 -7.47512
Si -8.30323 0.68715 7.3787
Si -1.92026 7.20611 8.49646
Si -1.28102 0.834199 0.327041
Si -0.596861 4.19511 -5.74887
Si 9.38949 -6.84085 -3.19598
Si 0.763223 6.88882 -6.14544
Si -0.431871 8.66819 1.43004
Si 2.74295 -5.63183 4.0628
Si -6.19259 8.58494 6.55286
Si -5.58767 -6.38138 4.01406
Si -0.238697 9.68349 -7.09772
Si -5.82971 3.40587 -4.16246
Si -3.65099 9.53776 5.21065
Si 8.78723 2.84562 -3.0387
Si -3.64227 -4.38464 2.40507
Si -8.20221 -8.92467 -0.180536
Si -5.83696 9.34508 1.59658
Si 1.75835 -8.54198 -4.36992
Si 7.23999 -9.72476 -5.19925
Si 1.6744 4.4617 1.25847
Si -7.41277 7.51446 3.73758
Si 1.44137 -9.70478 6.56516
Si 6.55835 -1.26749 -1.51641
Si 10.373 -3.95181 -3.21519
Si 1.3995 -8.52777 3.74646
Si -8.76841 -5.32039 -7.61014
Si -4.8413 -6.25114 7.23343
Si -2.45147 2.01483 -6.75609
Si 3.9525 6.4786 -5.77081
Si -5.83163 1.79627 -1.37273
Si 3.37283 -1.38799 -5.10461
Si 9.10003 7.76228 5.84364
Si -0.367378 7.75851 -1.61623
Si -0.231339 -7.4229 -0.451608
Si 5.1178 9.34001 -5.55032
Si 9.44633 9.18549 -7.5675
Si -0.290098 -3.8305 -3.16506
Si -10.0978 0.688239 -3.74469
Si 5.94817 7.65813 6.3834
Si 8.82916 6.23753 -7.96608
Si -1.4417 3.69322 1.69517
Si -10.3638 -6.96637 1.02348
Si -9.68784 7.27837 -8.85195
Si 3.74666 -0.0723454 5.26684
Si 3.43398 9.54768 -0.291993
Si 9.47337 5.35985 2.3058
Si 6.15999 3.62651 -1.52832
Si -1.8056 -5.7676 -5.15672
Si -7.89368 -9.79492 6.17529
Si -8.17543 8.58427 -3.27574
Si -5.75536 -10.1505 -8.11244
Si -3.80851 -0.341546 -0.932929
Si -5.1011 -2.00048 -7.95431
Si -4.95225 6.47845 8.11112
Si -2.76237 -7.02575 1.43576
Si 2.9868 9.91958 -3.32532
Si 0.997025 -9.8136 0.95614
Si 8.22889 -5.62643 3.70236
Si -5.57245 9.34432 -1.62656
Si 4.63825 -5.33921 6.64211
Si 9.96015 -1.32962 -8.16541
Si 4.29974 10.2468 6.2649
Si -2.87728 -2.38935 -3.16246
Si 7.14896 1.39123 -5.30362
Si 8.97213 -3.00639 -5.88186
Si 10.0206 -7.11522 -6.30284
Si -9.49031 3.48264 0.742999
Si 3.88578 1.80805 -5.41178
Si 1.73805 -9.04202 -7.47584
Si 0.657022 0.0990588 5.24172
Si -5.44763 -4.24098 -3.61892
Si -10.2998 4.75316 -2.09965
Si -7.85196 -6.95582 7.57942
Si 1.63941 3.22541 -3.7553
Si -6.92917 9.01033 -5.98968
Si -7.96949 -3.57965 -2.09572
Si 6.17729 2.40444 3.05366
Si 0.053913 2.92598 9.38276
Si -8.97424 -8.54162 -3.12605
Si 2.9305 2.92159 8.43472
Si 4.93654 6.1961 -2.7152
Si 8.22681 -1.01579 5.38195
Si -3.4383 6.92145 -1.64703
Si 2.00484 5.51395 5.31594
Si 6.61196 5.01708 1.3081
Si 9.65518 -1.32939 -1.93412
Si -6.02154 -6.97299 -7.55638
Si -3.42034 0.148426 4.82679
Si -5.51359 -7.36899 -0.128124
Si 9.93057 -0.651616 7.77238
Si 9.52956 -4.27564 -8.62512
Si -4.32419 7.51019 -5.75402
Si -4.9458 4.01053 6.15915
Si -1.55442 -7.40788 4.21605
Si -7.44413 -0.486818 -2.6907
Si -6.3273 -1.78457 -5.25059
Si 4.94378 -6.48565 -7.39363
Si -0.465067 -0.0728286 8.1092
Si 9.26443 -4.31255 0.997497
Si 7.36306 -9.49493 -8.33784
Si 0.144482 8.96317 -4.233
Si -5.66656 -9.5313 3.82441
Si 7.54478 -0.304777 2.35364
Si 4.36401 -5.47044 -2.42108
Si -9.6689 5.36657 -6.52751
Si 7.38682 -3.99292 6.18177
Si 6.30193 -4.08068 -0.232686
Si 2.6733 -2.46626 0.685732
Si -5.62775 1.87251 8.59274
Si -6.27044 -7.30084 -4.36913
Si 5.46229 7.78113 1.02719
Si 1.70852 -5.05211 -0.863629
Si 3.29558 1.7304 1.76519
Si 4.48346 5.20698 7.15586
Si -2.24363 -8.04098 7.26884
Si -3.13365 9.14132 -7.92709
Si 9.1801 4.75439 5.39649
Si -5.42785 -2.21964 0.997745
Si 7.81149 -6.58047 -8.51951
Si 10.2947 -9.92775 -5.2174
Si 8.17319 -8.61251 4.09222
Si 6.14087 -9.96621 -0.834427
Si 6.27396 -7.79271 -3.12203
Si 0.119668 0.669795 -2.46716
Si 0.511676 -2.19977 -5.83911
Si -2.21683 -2.7788 4.87075
Si 5.33632 -4.85613 2.63111
Si -3.65045 -4.83237 -7.49655
Si 4.56711 1.04425 -1.08102
Si -10.2552 9.85348 0.687925
Si 4.82493 8.47786 3.74632
Si -0.619851 -4.60932 -7.6118
Si -4.51089 6.65677 -8.71032
Si 2.0134 5.59021 -1.65047
Si 2.30772 2.48834 5.32685
Si 4.35796 0.0634695 8.17569
Si -6.28531 -0.327885 3.39907
Si 7.11778 8.32702 -1.65264
Si -3.27269 5.02095 -4.05779
Si -4.26198 -8.89975 -2.61388
Si -9.03366 -4.45904 5.81782
Si 6.14038 -8.17587 6.49255
Si 6.42231 -1.5902 -4.72084
Si -6.47688 3.79461 0.994587
Si 7.21885 0.651594 7.73335
Si -4.64583 3.54011 -8.46692
Si -1.4374 10.0504 7.33494
Si -3.7289 -0.411137 8.01727
Si -4.39384 0.751346 -8.52391
Si 8.68925 1.49328 -8.06976
Si -1.64918 -0.29369 -4.9318
Si 2.67177 -1.08119 -2.20616
Si -7.06853 8.32426 -8.99491
Si 3.25484 -5.76844 -5.01124
Si -9.56978 2.45701 4.99342
Si -8.53784 -5.77923 3.0947
Si 10.0519 -10.3226 6.16774
Si 6.6281 3.20066 6.05917
Si -9.11362 0.810541 2.46875
Si -3.85072 5.53531 1.11049
Si 10.1473 -1.27399 0.909414
Si -10.3927 8.04555 3.1961
Si 9.82034 -3.75898 7.93306
Si -9.59889 2.14643 -6.5722
Si -1.24648 -8.07933 -3.34064
Si -4.34594 -3.25369 7.10463
Si 2.06458 7.14352 2.8373
Si -7.01206 -1.92032 5.97783
Si -8.10197 5.64444 -3.90249
O -3.36297 4.58018 11.2236
O 2.27992 -3.33784 9.55288
O 4.44909 -0.0815398 6.61728
O -6.50953 3.58122 2.5825
O -0.743963 -3.34478 5.01006
O 2.80022 -10.4028 6.83635
O -1.7855 8.08126 2.13635
O 1.64583 -9.07398 2.25615
O -9.97486 1.40495 -5.19385
O 9.23952 -7.7227 1.09453
O 4.36102 -0.912764 4.03032
O -5.73413 8.16232 -5.35379
O -0.264374 10.2509 1.3759
O 8.78915 -7.12749 3.78118
O 8.90219 -4.74871 2.56721
O 9.91157 -2.19452 8.25854
O 1.26134 -5.71929 8.48916
O -0.45007 1.15407 -1.02438
O -7.92288 9.1432 -4.79722
O -7.733 -1.66502 -5.98575
O 10.2558 -5.46768 0.620451
O 7.46291 2.85015 -2.03315
O -4.31663 3.85386 -4.3771
O -8.03228 4.25499 0.684911
O 9.00844 4.9845 3.76939
O -8.66765 0.392423 -3.25563
O -0.413251 9.85379 -5.48148
O -6.01033 -3.30797 -4.7889
O -9.84377 -0.551984 1.88781
O -6.42444 -3.97674 -2.34924
O -8.77506 1.65462 6.12737
O -8.37902 -5.72754 6.60661
O 0.595193 -10.1143 -7.60281
O 2.27932 4.00031 4.7761
O 0.68888 -5.08758 -8.46842
O 9.74388 -5.36962 -2.75788
O -6.29184 -5.89387 0.0666661
O -2.49542 4.62394 0.99827
O -1.86071 3.55992 3.26213
O 10.271 3.48084 5.45464
O 5.4582 6.44227 7.33063
O -3.77517 6.6189 -0.065764
O 1.64726 3.06499 9.38129
O -1.00094 -7.17258 7.74766
O 9.99504 -2.8673 0.914836
O -9.25502 -7.71336 0.178877
O -5.73159 -5.81758 -3.95718
O 6.25768 -1.6962 -3.08241
O -2.46065 -1.69555 -4.55769
O -2.45837 1.44059 4.69907
O -2.05321 -9.5404 7.84338
O 6.56197 -5.67629 3.26036
O -6.24808 -7.22441 -5.97928
O 3.04116 -1.73564 -3.5611
O 0.355103 -2.9319 -4.34021
O 5.60337 8.5975 2.3893
O -9.10036 6.20026 -7.82823
O 2.98796 -9.62525 -8.35462
O 5.80741 0.0286533 -0.993678
O 2.22549 5.73915 2.05241
O -7.31387 5.89552 3.63085
O -4.83901 0.225792 3.96061
O -9.62752 -9.66361 -4.09837
O -7.80459 -7.68606 -3.86544
O 7.53457 7.82125 6.19904
O 2.17106 -0.359786 5.61448
O -1.52655 -7.37982 0.48141
O -6.82062 0.494392 -1.62078
O 1.74499 4.90503 -0.240848
O -9.73446 8.61482 -2.78023
O 1.89173 4.44932 -2.74826
O -9.22468 2.01448 1.38459
O -5.87788 9.35672 -0.0736382
O 10.0884 -0.613005 -3.36295
O 5.88881 -8.84627 -1.92795
O -6.22934 4.17263 5.18613
O 0.933955 1.65053 5.07564
O 10.4052 -8.6251 -6.24462
O -7.25285 8.29541 -7.37081
O -4.69197 8.97149 6.25276
O -5.17104 -6.17042 5.59983
O 0.54127 -8.75955 -0.163205
O 3.5387 1.52943 4.95969
O 2.28607 -7.20318 4.09696
O -4.36776 5.07031 -8.97603
O -2.08353 -7.96048 5.64385
O -6.11498 2.62033 -0.0354416
O -6.00048 -10.3209 2.52402
O -2.32818 0.944334 -5.62243
O -3.3425 8.60048 -6.41002
O 7.60963 -2.48893 5.64042
O 5.79706 4.88876 -2.41265
O -2.50762 -0.0529251 -0.064394
O -4.09664 -2.00765 8.12881
O -8.87942 -10.2974 0.479482
O 0.706292 3.71274 -4.92139
O -2.60683 -1.25536 4.59452
O -9.00465 4.67841 -3.04828
O 9.55254 6.17436 6.0487
O 9.78654 5.53839 -6.86044
O -6.22421 2.38544 -5.34101
O 8.56452 7.7923 -7.39066
O -6.30542 10.3407 -6.66665
O 10.4408 -0.878652 -0.648661
O -1.92691 7.32401 -1.7883
O -5.62801 -2.60525 6.26827
O -4.393 1.12693 -1.30101
O 5.25881 -3.42411 3.32055
O -9.38646 3.7637 -6.424
O -3.09457 -5.1424 -5.95682
O 8.05416 2.52292 -9.13699
O -7.53848 -0.727712 6.99924
O 7.85829 -4.35436 0.194339
O 1.97529 -3.25527 7.45021
O 8.52695 -5.32813 -9.33205
O -4.82319 -10.3013 -2.10675
O -10.0386 -4.97552 -8.61008
O 2.09321 -1.92419 -5.92466
O 4.70107 -8.05005 -7.60993
O 4.94082 -1.72383 -5.34644
O 8.61974 -0.763445 1.27989
O 7.81086 4.27691 6.01134
O 3.7983 2.68758 -6.75139
O 0.185817 -8.6398 -3.9089
O 7.08513 -0.142042 -4.92867
O -4.65017 0.638194 8.65995
O -4.2612 10.318 -8.18694
O 0.525332 8.19837 -7.11396
O -6.5941 9.90171 -9.15161
O -9.61614 -6.18689 -6.50551
O 9.51825 -1.67736 -6.6581
O -10.3946 8.63607 -0.309962
O 9.97151 6.55467 -9.17105
O 3.01888 2.71418 -4.39719
O -3.34747 7.77878 -8.88475
O 2.19916 -5.34217 -6.23492
O 6.97226 -8.28713 5.10214
O -3.34981 8.37612 4.15428
O -4.75281 -7.80913 -1.51009
O -8.32191 -4.34124 -0.754348
O 5.29492 4.07908 6.3236
O 9.63865 -2.71366 -8.95638
O -3.51575 -1.225 -2.27569
O -2.87822 0.95195 -7.90788
O 9.54477 -9.4323 7.4105
O 3.74704 1.54039 8.63187
O -3.55016 7.14936 8.40041
O -2.15217 -4.75034 -8.17446
O 7.60931 -8.09281 -9.09267
O 5.56183 1.72897 -5.18223
O 9.58085 -0.798458 6.17343
O -6.7165 -8.4874 0.170663
O 4.55638 10.3946 -6.6169
O -0.339216 -0.880171 -5.71201
O -5.2313 -7.95451 3.69404
O 10.3962 6.63645 2.4289
O 0.645781 -1.15368 8.65645
O 9.41061 8.11644 4.30202
O 3.15943 9.30128 -1.86316
O -10.2346 8.69425 -8.24811
O -1.57082 2.18887 1.0608
O 5.756 3.699 -8.42584
O 6.29299 -2.52984 -0.606311
O 2.90518 -1.84069 -0.772276
O -1.43503 6.21427 7.29925
O -3.64404 -7.24883 7.54925
O 9.76383 9.14443 6.46174
O -6.85094 -1.09812 4.65481
O 2.31278 6.64976 -5.97657
O 7.14571 1.26095 2.43802
O -6.11861 3.32616 -7.77496
O -8.12489 1.68289 -7.08032
O -5.93367 -1.34151 2.19282
O 1.61574 6.65345 4.26305
O -10.4763 6.30628 -1.73133
O 8.29252 -4.14536 7.55144
O -9.44968 -1.45496 -8.01881
O 5.13196 -9.43594 6.48048
O -0.316476 1.39039 8.7954
O 6.70275 8.11882 -0.00795594
O -4.69996 -5.98634 -7.77818
O 7.50569 -2.56702 -5.32372
O 9.97249 1.80051 -2.96156
O 4.71609 7.85759 -6.10157
O -8.45158 7.83702 -9.69737
O 9.5059 -7.27878 8.73561
O 8.67409 0.283603 8.30206
O -6.71365 -2.08862 -8.24057
O -3.62745 3.12552 -7.26499
O -6.79218 4.74558 -4.29538
O -6.78348 8.29793 2.40727
O -10.3685 9.25923 2.18037
O -0.364283 3.88394 8.1551
O 8.63006 7.93293 -1.94876
O -3.04852 -3.28762 6.18929
O 5.84685 -4.37134 6.44215
O -8.9872 6.07655 -5.19462
O -6.43176 -0.903758 -3.88175
O 10.0016 -2.88315 -2.09661
O -4.44306 8.15554 -1.96913
O -2.04617 -0.432918 8.26062
O 5.42243 7.46486 4.86662
O 6.17573 -1.16923 2.25972
O 6.27376 -8.75904 -4.39362
O -5.24912 4.8233 0.880304
O -0.366795 8.965 -2.66778
O 4.2551 6.24957 -4.22449
O -1.76862 4.54592 -4.63171
O 3.70336 -4.82526 -3.8055
O 5.28468 -6.85245 6.59753
O 0.34364 -0.500816 3.77352
O 10.3222 -4.80125 9.04802
O 6.91192 9.938 -1.72584
O 1.49956 -9.55758 4.96878
O -6.02488 2.75695 -2.69305
O 5.89058 -10.0284 -8.70462
O 8.11688 -0.974843 -1.65122
O 5.4958 -4.54668 1.07514
O 9.2285 -9.54479 4.90954
O -2.40476 -7.61803 2.89281
O -7.40103 -6.13165 -8.04852
O -3.85238 0.0946274 6.44232
O -2.30363 9.84629 5.9337
O -0.72769 -5.64816 -6.38922
O 7.97737 -9.32557 2.66987
O -5.60603 1.00112 -7.51883
O -5.82896 7.30466 -9.32041
O -4.45573 -0.836894 -8.82836
O -0.12529 -8.07272 3.88062
O -5.22304 2.92859 7.31203
O 8.10554 -0.680877 3.81477
O -10.3042 -4.08308 6.571
O 7.83538 5.16937 -8.52025
O 1.49699 -7.47417 -7.71558
O 6.43234 3.86972 2.5074
O -7.92017 -1.9354 -2.16375
O 8.05629 2.37076 -4.46766
O -0.810326 3.72413 10.5074
O 7.29382 -9.15432 -6.72841
O 1.35225 -4.82674 4.1214
O 3.23722 5.81678 6.30735
O -6.48259 -3.29101 0.516808
O -5.2505 -8.45952 -3.87427
O -1.55115 6.25579 9.78134
O 3.22582 -1.03201 8.63988
O 0.885669 6.77596 -1.8934
O -4.29825 -3.18934 1.56582
O -4.85222 5.46095 6.90112
O -0.71927 -7.32992 -1.97941
O 3.54518 -5.90399 -8.22974
O -5.2755 2.86707 9.86854
O 5.90066 0.0581945 8.48867
O 3.7805 -5.03496 7.93698
O -1.50696 8.73759 8.2644
O -10.077 3.81475 -0.748729
O 3.62259 -5.30691 5.36562
O 0.343808 -5.71982 6.21403
O 2.3719 -7.02488 -4.38105
O 3.29566 0.25674 -5.40986
O 3.69633 1.208 0.258698
O 2.16066 10.2139 0.362054
O 6.42907 -6.14016 -7.83358
O 2.15289 -3.94953 0.227945
O 10.0297 9.81181 -6.13562
O -3.72712 3.67901 5.18005
O -7.03106 9.98954 6.86785
O -4.77256 -5.3509 3.1657
O 8.1263 5.64191 1.45697
O -7.76039 7.00328 -3.2046
O 0.10251 10.4814 6.92429
O -0.098967 5.55739 -6.54888
O -0.191876 0.0993834 1.23921
O -4.68062 6.7176 -7.08819
O 4.52306 -6.13336 -5.93568
O -9.40522 -10.2196 5.90195
O -2.90722 -5.38634 1.49419
O 4.40474 9.70325 4.75483
O -1.85584 -7.20042 -4.55754
O -7.14886 -6.30157 3.72735
O 5.5275 -4.74691 -1.54914
O 4.69146 2.00263 2.51385
O -5.17118 -1.5008 -6.34325
O 7.09509 -9.28139 0.183591
O -5.21152 5.57593 9.42842
O 0.939788 1.93126 -3.14976
O -7.60041 0.480918 2.88461
O 3.63992 0.158852 -2.09033
O -8.35518 -3.79385 -7.32707
O 6.60864 9.79001 -5.38217
O 8.4945 10.3561 -8.26991
O -9.16643 -4.94841 4.28007
O 9.84846 -3.43639 -4.58823
O -7.21738 1.50307 8.28349
O 3.88554 -5.48103 2.87923
O 9.03451 -4.16975 -7.04312
O -4.209 -7.37359 0.855657
O -4.88119 -1.1717 -0.175886
O -9.58544 -6.8461 2.46663
O 6.47257 4.09614 -0.0152068
O -8.94468 -6.79424 8.75577
O -8.52391 3.51174 4.25799
O 0.837513 -6.21145 -0.15684
O -1.26013 3.8161 5.7689
O -3.05128 4.22125 9.11654
O -0.0767756 -3.2276 -6.94421
O 2.22345 0.641485 2.38142
O 5.14179 8.9891 6.90976
O -5.85138 -8.48401 -8.22825
O -1.17932 -5.84393 4.32771
O -9.87376 1.29727 3.80508
O 3.594 6.12063 -1.78368
O -0.231812 8.17798 -0.096017
O 0.104364 4.21421 1.65435
O 1.68265 9.29487 -4.06988
O -7.00141 9.2326 -2.41498
O 8.93932 -6.87792 -7.39315
O 2.37806 2.62367 6.91565
O 8.09951 -4.91436 5.11658
O 6.85187 2.23805 7.33371
O -10.3303 -7.72172 -2.7403
O 0.0872419 7.40775 -4.70831
O 9.43698 -6.82934 -4.80238
O -9.70931 0.15511 7.96873
O 10.4007 4.22307 1.62555
O 1.15242 -0.551176 -2.22212
O -7.9804 -4.92664 1.79834
O -8.0959 -3.12295 5.89832
O 7.64038 1.48994 -6.8444
O -1.19169 2.98883 -6.55674
O 7.82486 -7.28912 -2.91554
O 0.808559 -4.39088 -2.04226
O -8.34158 -9.07424 -1.77672
O 2.45171 3.1291 1.56514
O -6.14784 7.50009 7.6946
O 9.46533 4.24757 -2.90156
O 3.41074 7.88356 3.14727
O -1.14824 -4.91274 -3.92205
O 4.90433 2.57043 -1.54131
O 9.49829 -10.1775 0.53116
O 4.46471 5.2882 -6.73737
O -4.43397 -10.2545 4.54458
O 9.18326 -0.00639629 -8.60927
O -6.28666 -6.72371 7.81045
O -0.232983 -0.0756096 6.53586
O -3.81599 6.3732 2.46176
O 5.94935 7.41504 -2.35623
O -4.40211 -3.4536 -7.8111
O -6.90927 -9.63182 4.82752
O -1.62935 9.59033 -7.92805
O -8.9508 7.91793 3.87413
O -4.5759 2.18682 -9.38736
O -6.76809 8.00744 5.10711
O 10.1212 1.9987 -7.55076
O 0.715036 5.30081 6.25228
O 1.26329 -8.13062 7.1056
O 2.57443 -9.52974 -3.3821
O 4.7647 10.5033 -0.269798
O 4.32245 9.60224 -4.14525
O -3.65737 6.42277 -4.81094
O -4.6369 -4.65733 7.78056
O 3.08624 -5.64577 -1.4662
O -2.85476 -3.64795 3.64043
O 7.25333 -8.33342 7.69009
O -3.99332 -3.5748 -3.27536
O -4.31734 8.88756 1.94479
O 1.54661 -1.70716 1.50594
O -8.10313 -8.37331 6.92354
O -3.57178 5.57214 -2.52278
O 6.43965 2.48325 4.61476
O 5.6159 6.20014 1.23751
O -1.0427 0.257223 -3.54077
O -1.52889 -2.99115 -2.44672
O 4.01256 8.18775 0.376191
O 3.89902 -2.22566 1.62733
O -8.99631 -4.03319 -3.19839
O 2.0745 -9.03275 -5.91042
O -2.62372 -8.83496 -2.85903
O 3.85339 4.29259 8.35596
O 5.13945 -6.69385 -3.05889
O 0.916144 8.033 2.18557
O 8.75122 -9.73888 -4.58893
O 7.36996 0.0695872 6.25085
