594
Atoms. Timestep: 1790001
Si -3.09029 9.69436 9.16407
O -2.3872 10.2091 10.6074
H -2.41276 9.57945 11.3182
Si -5.1259 -0.724315 -10.5767
O -5.93126 -1.43584 -11.887
H -5.7759 -2.36959 -11.9674
Si 9.12953 -8.18264 9.63853
O 10.0347 -8.16488 11.08
H 9.69352 -7.54506 11.7139
Si 7.43923 0.431056 -11.1844
O 7.81852 0.520838 -12.7838
H 8.63933 0.91988 -13.0475
Si -2.36869 -2.46389 -10.6778
O -2.51664 -3.52859 -12.002
H -2.08783 -3.30064 -12.8185
Si 6.17707 -7.05927 10.3241
O 6.19035 -6.54514 11.9366
H 5.41923 -6.08588 12.248
Si 7.96822 2.80205 8.57239
O 7.70408 3.29921 10.1774
H 8.29197 3.95765 10.5286
Si -6.65572 -1.71713 10.4461
O -6.59452 -1.63069 12.147
H -6.87483 -0.815436 12.5462
Si 5.61322 0.836962 7.59855
O 4.47661 0.768645 8.85678
H 3.60531 0.530305 8.56263
Si -5.76643 -4.53588 9.30339
O -5.45499 -5.46379 10.6582
H -5.98094 -5.29748 11.4317
Si -0.247232 8.4965 8.93592
O -0.530857 8.07243 10.576
H -0.16434 7.2085 10.7237
Si 5.31784 2.08402 -8.9813
O 6.08645 2.26534 -10.5391
H 5.71916 2.94928 -11.0867
Si 10.3726 8.10914 -6.48547
Si 5.21685 -1.02061 -9.64155
Si -9.07223 9.99208 -6.52093
Si -7.22086 -0.193322 -3.40252
Si -8.5453 7.35455 6.02132
Si 9.24702 0.462121 -2.7821
Si 1.31618 -8.25752 3.45235
Si 4.93219 3.05099 2.4536
Si -10.3841 -2.04122 4.17453
Si 8.30337 0.0424893 3.15582
Si 9.29764 -3.091 -6.15666
Si -5.77408 -5.25534 -3.9647
Si -2.30983 4.42001 -5.69453
Si -0.753409 -2.63877 -3.28883
Si -7.3105 2.56015 7.17241
Si -3.22902 -7.13827 2.12326
Si -7.49445 -7.57516 -3.64091
Si 3.19575 7.20291 -3.73602
Si -0.225366 4.50873 -7.87474
Si 9.94256 -5.87707 7.44738
Si -8.84238 -1.09574 8.46662
Si -9.69759 2.18238 2.34063
Si 6.43635 -2.2326 4.34848
Si 10.4838 -7.76473 2.90899
Si 7.35074 -6.4158 5.84297
Si -8.11036 9.37643 8.48559
Si 0.0917464 4.17278 -1.21805
Si -4.7385 2.36454 -10.2513
Si -0.703746 7.34381 4.90676
Si 2.08772 10.3835 7.96133
Si -9.67712 -0.982049 -7.33374
Si 3.26449 -6.35141 4.91693
Si -1.71536 2.32248 -9.43372
Si -8.92553 7.81742 -1.1406
Si 1.43591 -6.46022 -1.53687
Si 2.16868 -9.58136 -5.63351
Si 10.2228 5.72856 -2.31104
Si 4.96891 5.53747 5.89855
Si 9.88861 -2.80948 7.23787
Si -3.27768 8.32813 -3.37472
Si -5.32774 4.6008 -6.28384
Si 3.78853 -8.34395 8.83022
Si -4.57407 -9.79691 0.59697
Si -4.8557 -7.61438 -5.45583
Si 7.2775 4.25021 -4.7083
Si 4.1327 4.47407 -5.11021
Si 3.92909 2.63344 5.6081
Si 0.834886 -1.53457 -0.860777
Si 2.37366 -1.66066 -9.05512
Si -5.78645 1.63533 4.62884
Si -3.29892 -5.7936 7.71373
Si -7.73514 4.67685 1.94951
Si 2.6726 3.24479 -7.62683
Si 3.60021 0.378255 1.53663
Si -4.24738 -9.37456 -7.76254
Si 2.8326 10.0197 -0.341363
Si 1.36713 -4.25125 -7.46625
Si -5.12406 -2.29621 -3.84117
Si -6.45132 8.42669 -2.63067
Si -9.68901 1.13748 -0.553439
Si -9.78927 6.83952 1.69901
Si 5.01244 -9.38555 -4.66401
Si 3.58995 -1.40874 4.07355
Si -5.51911 8.04939 8.21318
Si 1.15481 1.37011 -2.27056
Si 0.519916 -0.284651 1.68817
Si 0.224776 -8.85777 6.18094
Si 9.51026 -5.25961 -2.13059
Si 0.894167 5.3396 3.37317
Si 3.94383 -9.39046 2.04395
Si 8.23917 7.20494 -4.27244
Si 7.00854 -2.11443 7.37666
Si -0.470082 -7.54409 0.886445
Si 5.62907 0.0404963 -5.55719
Si -9.69463 -9.50686 5.36652
Si 4.99778 9.82101 4.32703
Si -6.41426 -0.866901 0.949913
Si 6.98812 2.40717 -2.1077
Si -8.3974 -1.71609 -1.12378
Si -1.26052 7.21699 -6.76432
Si 3.85844 2.69097 -2.50255
Si 0.170541 0.0136524 -4.75037
Si -3.50437 9.11968 -6.47824
Si -4.06312 -8.76748 7.46062
Si 2.44943 -4.17324 3.04114
Si -3.68533 -7.1938 5.06966
Si 4.16603 -4.03933 -5.57601
Si 2.64322 -5.55149 7.93471
Si -9.51909 5.58562 -7.54895
Si 5.30331 -1.99204 -3.3769
Si -7.64476 -7.57377 2.31512
Si -1.70957 9.6866 6.58906
Si 0.73072 8.88473 -4.97721
Si -2.74054 8.76399 0.717732
Si 10.0097 10.227 8.07088
Si 3.93033 -1.92203 -0.560786
Si -1.89981 1.51028 2.4025
Si 6.39356 -2.57696 -7.27538
Si -6.73673 1.68177 -0.86991
Si 2.73662 -9.07392 -2.71552
Si -6.55884 6.33984 -8.51031
Si 0.964265 3.45559 6.00076
Si 0.764098 6.15445 7.02626
Si -0.149949 -3.99369 4.8402
Si -1.19111 1.26851 5.54663
Si 9.36451 7.71167 6.18791
Si -6.77487 5.69677 -3.73192
Si 7.1118 -7.06846 -1.68605
Si -3.38476 5.94559 -0.218816
Si -3.32043 -1.02511 1.30724
Si 8.98944 -10.1189 1.46681
Si 6.05531 -6.48544 -4.57546
Si -9.7487 -10.4477 -0.536155
Si -4.65637 9.26608 5.3505
Si -6.2553 5.38042 6.80452
Si 8.04301 4.87579 6.29074
Si -2.48708 -7.17032 -7.60437
Si -9.14189 3.10049 -9.29248
Si -9.50292 4.3248 -4.66987
Si 9.30284 -9.32717 -2.39759
Si 8.43226 -2.50807 -3.11844
Si -1.506 4.36229 1.49573
Si 7.63065 9.70819 -0.968375
Si 7.68262 2.27336 1.0218
Si 0.873381 -1.07894 4.83216
Si -9.23391 -4.54642 -0.416247
Si 9.64718 0.923959 -8.89963
Si 3.27797 -4.76214 0.207831
Si -10.2491 1.57798 7.56921
Si -3.72633 -0.288856 5.87136
Si 2.9703 5.31185 -1.10603
Si 7.56659 2.16455 -6.81053
Si -0.226014 10.3851 0.101759
Si -6.49663 -0.929367 -7.68548
Si 0.553671 -7.08276 -6.77821
Si 9.15289 -6.03819 -5.23896
Si -6.18157 4.68911 -0.697004
Si 9.40257 2.38114 4.77976
Si -4.89724 -4.46567 2.67041
Si -2.80901 -2.57911 3.92201
Si -9.6142 1.16705 -4.9575
Si -8.81992 8.99238 3.56042
Si -3.98259 -5.74164 -1.47538
Si -6.57458 2.19692 -7.6611
Si 9.01232 4.96068 0.523614
Si 5.44155 -6.89268 1.00152
Si -6.55602 -6.03743 4.63247
Si -1.81569 -4.04199 -7.95645
Si 3.84294 5.84416 2.94457
Si -0.241226 -5.87376 7.46452
Si 5.87787 9.04349 -3.38032
Si -6.90399 -9.75697 -1.48205
Si -3.77746 -2.07912 -6.48218
Si 5.32324 -8.56809 6.00561
Si -6.19396 9.36833 -7.87617
Si 5.72102 -4.81695 8.15767
Si -6.23721 -10.391 3.02714
Si -7.1703 -8.90607 7.31013
Si -5.27272 4.60034 3.84277
Si 4.28629 7.51187 0.587809
Si 7.08962 -4.92787 2.89535
Si 7.33373 7.34163 0.768968
Si -7.84497 -6.0467 7.49489
Si 7.91872 8.73649 3.47012
Si -6.0402 -0.153447 8.08503
Si -1.17429 10.399 -2.87281
Si -3.48377 7.20302 3.37166
Si -8.07331 -0.280889 3.40617
Si -2.13964 5.38552 -2.91
Si -0.415464 -5.64788 -4.02065
Si -3.32463 -2.61955 -1.4126
Si -6.41569 -5.48186 0.456957
Si 3.34552 7.95653 6.41072
Si -1.69916 0.122393 -7.27902
Si -6.85814 4.43211 -11.0255
Si -10.2016 -8.5106 -5.02164
Si 10.1417 -4.67017 2.44859
Si -2.63681 -7.73157 -3.18197
Si -0.325664 -0.362458 -9.91192
Si 2.64408 0.282073 -6.5466
O 6.20911 -0.553417 -10.8438
O -10.4328 9.46413 -7.37111
O 8.79 3.83393 5.26014
O -5.60783 6.4754 7.81004
O -6.82129 8.55894 9.07376
O -0.311291 4.85142 2.43665
O 1.89324 -3.18353 -8.60326
O 9.64655 -4.59687 -5.95246
O -10.4892 6.90717 -7.4495
O -8.25367 0.679021 -4.27776
O 2.8672 -7.06008 8.5284
O 4.99075 -8.17372 1.87486
O -3.59723 -10.0624 8.31207
O -3.93075 -2.21445 -4.89629
O -0.729113 8.71632 5.77426
O 7.12849 -0.995179 3.55954
O -5.62656 5.3528 -4.84649
O -10.4317 -3.4855 3.43497
O -5.60757 3.39431 -11.0513
O -2.39698 9.4089 -2.6817
O 6.31614 2.47348 1.88368
O -5.41763 8.7966 6.71286
O 7.86979 1.2593 -2.77839
O -5.41989 10.3503 4.4365
O -7.4886 -1.03215 2.12212
O 4.07761 -4.83058 8.14024
O 1.977 7.07509 6.41849
O 8.60565 -1.96489 7.68082
O 7.07593 8.16186 -3.83621
O 7.27868 3.67627 -3.129
O -6.05244 3.07523 -0.745539
O -0.843992 -0.528618 -8.41617
O -5.96376 -4.82656 3.87528
O 3.67545 5.97931 -4.73846
O 9.5794 -5.80476 -3.67436
O -1.71065 -6.50834 -3.67483
O -6.07573 -1.01302 -4.09757
O -7.60839 9.95947 -7.25624
O -7.28655 7.93647 -1.3227
O 0.475278 1.1503 -3.67938
O 6.2601 -5.84834 1.89526
O -8.74263 5.82557 2.37068
O 2.35709 -5.2476 -0.983284
O -5.23987 -7.03949 4.82691
O -1.94787 -3.31438 -9.36699
O -8.07833 8.00587 4.63223
O 6.31695 -3.28751 8.17183
O -6.61686 1.29651 7.91543
O 1.03771 4.60347 7.17811
O -1.67304 -3.61522 4.30236
O 2.97868 -9.72237 8.99035
O -3.30018 -8.26743 -8.41056
O 6.82294 -2.49974 -3.25315
O -6.78088 -8.84499 2.81738
O -1.07681 3.94865 -6.55042
O 3.90494 8.8278 5.08383
O -2.0786 7.2104 4.1588
O -8.09181 -1.27259 -7.53288
O 4.11848 -6.10673 0.551004
O 8.63578 9.93694 2.72103
O -3.15249 2.60914 -10.1424
O 4.17454 -0.677559 0.420289
O 8.26776 0.894335 1.81897
O 7.80267 -10.3007 0.316254
O -8.34107 1.88688 -0.915887
O -5.27272 -5.98613 -5.30996
O 2.53657 -8.99704 2.76852
O -8.13279 -1.43863 9.90307
O 3.64106 3.91122 -1.49466
O 4.93347 -1.79048 4.72504
O -0.786804 1.22885 -10.0791
O 7.88369 -2.98554 -6.95636
O 6.08404 -5.75121 9.44792
O 3.94492 2.00466 1.68346
O 3.71629 -9.94912 0.570096
O 8.54322 3.57776 1.22302
O -5.53625 5.64266 -7.45005
O 9.90835 5.93648 1.45838
O -4.62301 0.665772 4.9882
O -9.9974 -4.59616 1.08181
O 2.28522 1.74035 -7.14732
O -9.68153 4.98632 -6.10559
O 6.89756 1.77585 7.96799
O -9.19426 7.40097 0.357467
O -4.50525 -4.88613 8.29436
O -2.4777 0.650635 6.31554
O -0.568736 -9.15596 0.631167
O 8.01317 -8.32982 -2.178
O 8.4564 0.753874 -10.0569
O -9.73418 0.216235 -6.23883
O -6.29065 5.18038 -2.29979
O -8.04191 -1.35994 -2.62831
O 4.92675 -7.98459 9.95862
O 4.31275 4.06861 6.15119
O -9.67337 0.224909 8.18603
O -9.23368 -3.04896 -0.888823
O 4.83927 1.53481 6.40569
O 6.43753 -3.49504 3.34616
O 7.24223 2.35845 -0.532869
O 0.190899 -6.28723 -5.41576
O -3.28873 -4.25832 -1.05532
O 6.31812 -7.3082 -0.252783
O 2.74849 1.57789 -2.36411
O -2.27617 -5.59688 -8.08989
O -4.61715 -2.25933 -2.26371
O 0.474146 -7.58076 2.23117
O -7.40719 4.86095 0.354173
O 9.60826 -0.966247 3.4541
O 0.420885 -2.5049 5.37042
O 1.51644 -9.63524 6.80745
O -1.00146 3.61424 -8.99507
O -9.25487 8.56325 -5.76703
O 0.398726 6.83213 3.89169
O 7.56112 -7.80438 9.93921
O 5.1738 -3.54857 -6.70881
O -5.23798 -10.4843 -8.55396
O 10.2267 1.63821 6.03499
O 2.61727 -10.4158 -1.80858
O 8.92372 -2.56936 -4.68971
O -0.799241 0.36673 -5.99975
O -1.70359 -5.63412 8.09425
O -2.3866 8.1413 -7.26129
O -6.41972 7.91793 -8.55096
O -2.19254 3.09385 2.08727
O 8.71556 10.2104 -2.04755
O -2.51289 5.51455 1.1212
O 3.745 -9.63564 -5.63422
O -5.87789 -4.30472 1.44623
O -7.34348 -8.44847 -2.30929
O 10.2579 2.65485 3.45277
O 1.60404 -0.195663 -5.45854
O -0.351 2.51973 6.02482
O -3.14456 -7.07349 -1.75867
O 10.0863 0.762819 -4.07455
O 5.79025 -8.06551 -5.0323
O -5.90195 -3.06555 9.8778
O 0.878915 0.00591445 -1.43095
O 0.263802 7.09418 8.31259
O 9.9353 -7.34826 -5.65239
O 2.4465 -4.46972 1.51133
O 2.57038 -3.98363 -6.21763
O 9.19697 7.85538 -5.36906
O -6.44905 0.624078 -7.2367
O 1.30587 -5.87944 -7.62101
O 4.45417 8.23875 -3.46457
O 4.54277 6.88751 6.74067
O 5.11254 0.477987 -8.90216
O 10.1747 -2.41634 5.69756
O 3.90429 2.87513 -8.74512
O -5.89512 -0.501753 9.6391
O 10.4783 -0.42607 -8.6021
O -2.87098 0.514027 1.55071
O 7.5309 -6.09141 -5.14992
O 5.81459 10.2692 -4.39269
O -6.54506 0.632841 0.387599
O 5.40112 -0.565244 -4.07916
O -2.96146 -3.35638 -7.03939
O -6.45983 4.86793 2.80611
O -7.50696 -7.49101 7.96191
O 8.74438 6.27596 6.58144
O 6.18772 -0.73944 7.35053
O -8.11624 4.84184 -4.15607
O -8.18363 -9.05882 6.02323
O -0.417483 10.4436 -1.44763
O -3.76946 -1.64914 -10.4589
O 8.52859 -4.55115 2.2917
O 6.69782 1.16229 -5.90119
O 8.75671 1.46986 -7.66464
O -7.62926 -10.177 8.15798
O -0.618733 -4.02682 -4.09061
O 4.71695 -8.54456 7.54128
O 5.73159 4.32924 -5.10269
O -4.01568 -5.7402 2.26003
O -9.17212 -0.438293 -0.569621
O -2.92852 -0.823995 -6.91035
O -5.1944 -5.91706 -0.477674
O 2.33158 -1.9615 -0.780485
O 6.4039 9.13247 3.98466
O -7.68548 -5.01459 -0.303948
O -10.255 1.96414 -9.39135
O -0.238891 9.66609 -3.98183
O 0.302003 -8.88135 4.60319
O 1.01064 -4.35264 3.78186
O 6.08977 -2.10791 -8.76104
O 9.61933 -4.34723 7.66836
O 1.42068 10.0494 -5.89818
O 9.87402 -9.18083 -3.86528
O 1.98705 0.274214 1.38848
O 2.41076 -0.846809 5.00827
O -2.08355 6.05459 -5.89667
O 7.93604 3.37883 -5.88655
O -1.69523 1.37353 4.01799
O -3.26486 -10.4151 -6.98573
O 9.69025 4.98636 -0.931569
O -7.00431 -1.7727 -0.23583
O -9.76228 -2.23311 7.98116
O -6.7686 0.576201 3.88221
O 0.619406 -1.00498 3.17926
O -7.3217 5.09348 -12.3114
O 7.08055 -2.61573 5.78256
O -8.1057 3.55705 -10.4707
O 1.34536 10.0494 0.383578
O -4.91142 5.44766 -0.0643488
O 7.69543 5.82692 0.392319
O 2.32874 -7.76733 -1.92063
O 10.4628 4.7321 -3.52107
O -9.84107 4.44098 -8.65483
O -5.43839 2.47836 -8.74276
O 2.99087 -2.68892 3.4004
O 2.66439 -0.776959 -7.68232
O -0.518348 0.947827 1.85582
O 5.38136 2.27034 -2.29107
O 1.91667 -9.18043 -4.06521
O -9.55615 2.71396 -5.06058
O 3.45503 3.95403 -6.4768
O -0.611162 5.0436 -2.38564
O -0.537968 6.245 6.10576
O -6.02816 -0.912958 -9.3007
O -3.31941 8.77306 -4.95286
O -9.87971 8.0454 2.75396
O 0.536422 2.66891 -1.57067
O -3.15967 9.57089 5.97326
O 0.447933 -6.97087 -0.305431
O -9.58468 6.63455 -1.99378
O 10.3931 10.4801 0.763928
O 0.172221 -1.36338 0.572784
O 6.27107 9.5711 -1.88252
O -2.98841 7.52611 -0.284409
O 4.53051 2.68644 4.07847
O -10.0963 7.26825 5.92742
O 2.71781 -5.73767 6.33492
O -9.62386 9.19047 -1.35863
O -3.9866 -8.40285 1.37158
O -7.05294 -5.81231 6.10043
O -9.45532 -5.94262 7.29282
O 3.00034 6.35573 -2.35479
O -4.62913 -5.45212 -2.88044
O -1.88592 -6.99042 1.23084
O -8.26072 8.51548 7.15006
O 1.05725 -5.23104 8.25788
O 0.525478 -6.01857 -2.748
O -7.66764 -6.672 3.70193
O -5.96685 -3.65338 -4.00757
O -6.33302 -8.12779 -4.61648
O 6.77925 -7.90987 5.84995
O 1.48329 -8.35262 -6.43221
O 2.00721 -7.14673 4.31619
O 0.905696 4.37515 4.66768
O -1.20862 -1.32836 -10.917
O 5.18439 -10.0495 5.42546
O -0.257131 -3.91257 -7.37557
O 6.2223 -6.53925 -2.95038
O -0.403558 -1.34479 -4.1643
O -2.94655 5.1805 -1.56451
O -0.111716 -7.47533 7.02754
O -6.2977 3.30222 -6.48256
O -6.54839 3.89851 7.51832
O -7.33543 -1.0246 7.63471
O 5.85151 7.66298 0.370078
O -8.48142 3.2985 2.10407
O 4.29727 -9.06665 -3.26288
O -9.51511 -9.67461 -5.89978
O -9.02616 0.950801 3.09393
O -3.30552 -7.30876 -6.24875
O -0.475467 6.08365 -7.73946
O -1.69968 9.07837 8.27497
O 6.4004 -5.63408 6.91552
O 9.34202 8.91246 7.37013
O 4.69411 -1.81177 -1.91848
O -2.24725 4.30023 -4.11107
O 1.32542 4.04404 -7.92196
O -3.41415 10.1767 0.237849
O -6.92651 -6.75389 1.27086
O -5.56287 -9.05133 7.14305
O -10.1411 -5.34532 -1.39531
O -1.16668 9.24843 0.743407
O -9.73388 9.637 8.92099
O -10.2477 -8.43773 4.38796
O -8.88075 2.55772 7.50179
O 7.86484 4.11249 7.67242
O 3.44393 8.61786 -0.174682
O -0.242759 -5.04392 6.03376
O 4.89241 -5.43116 -5.00442
O -4.82447 8.23864 -2.73247
O -4.7639 -0.471372 7.19547
O -5.22274 2.95987 3.84323
O -3.76797 4.14526 -6.20534
O -3.26949 8.10961 2.02827
O 10.4676 -2.22683 -6.83336
O -0.873086 -7.54728 -7.42334
O -0.0731793 7.85588 -5.92338
O 8.92762 -6.27995 6.30578
O 7.81842 5.7199 -4.74968
O -6.62209 0.768926 -2.21751
O 4.14123 0.443825 -5.97574
O 2.29847 2.63252 5.79782
O 9.45481 2.19115 8.4401
O -7.5574 6.11735 6.35076
O 8.34017 -6.01676 -1.43465
O 8.76651 8.30717 4.78174
O 6.54885 5.33858 5.85452
O -6.88472 2.24972 5.68679
O -10.4441 -9.2589 -1.37743
O -6.53861 5.49781 -9.85885
O 4.02478 7.23547 2.17144
O -10.1543 1.65048 0.901754
O 1.94861 8.08031 -4.18638
O 8.36161 1.25087 4.28228
O 3.96686 -0.346022 2.9837
O 9.06148 6.77428 -2.93428
O -1.62747 -9.03764 -3.11509
O 9.30627 -8.65631 2.11787
O 0.763103 9.64963 8.67856
O -5.30373 10.4196 1.77207
O -2.12002 1.48856 -8.06632
O 7.30983 -5.72752 4.32357
O 2.96162 9.13896 7.4769
O 3.48059 -5.22714 3.79826
O 1.17144 -0.900797 -9.91121
O -6.99824 7.29507 -3.63097
O 9.64879 -6.95812 8.65864
O -4.18904 8.56737 9.05314
O -0.022175 0.0845669 5.39778
O 3.69441 3.356 -3.96925
O 4.20498 5.92308 4.48712
O 4.46512 10.4907 2.99744
O -4.93444 0.862798 -10.7068
O 8.88673 -1.08127 -2.51625
O -4.42198 8.06894 4.30968
O -8.02427 6.01672 -7.86353
O 8.96895 -3.75926 -2.36773
O -3.66312 -7.36206 8.15613
O -4.02205 -3.4105 3.34789
O -8.04835 2.47478 -8.26525
O -8.12646 -10.0156 -0.336127
O -2.50125 6.89896 -3.21068
O 8.07512 8.37757 -0.190115
O 10.2717 -6.20216 2.95412
O -7.11292 -5.02214 8.5196
O -3.27445 -5.90035 6.09613
O -3.4502 -8.49961 6.00678
O 4.1601 -3.40233 0.0034429
O -5.5783 -9.49798 -0.605331
O -4.11989 5.71343 3.36496
O -3.93643 -8.07239 -4.04383
O -6.75326 10.0323 -2.51914
O -10.4558 -10.0192 6.66907
O 1.43041 4.95935 -0.745274
O 2.32586 5.30429 2.76614
O -7.04681 -5.99645 -3.48132
O 4.41439 -7.4431 5.17051
O 3.74994 -1.59572 -9.82138
O -9.00442 -1.28946 4.26519
O 9.36644 -9.54792 8.85802
O 6.42796 2.51055 -7.97346
O -0.840784 4.04922 0.0723795
O 10.1714 1.13725 -1.62447
O -9.15859 -7.89221 2.07087
O -3.19503 -1.61698 5.17094
O -2.56807 -1.67324 2.62697
O -8.96989 -7.85107 -4.20688
O 3.7827 6.09941 0.0357801
O -2.19314 -2.59154 -2.49577
O -5.50527 4.97792 5.36924
O -1.02506 -9.91714 6.60383
O 0.205649 -2.50285 -2.00608
O 4.37492 -2.99967 -4.32734
O -4.91065 -1.15907 1.36672
O 4.79647 4.63945 2.41797
O 6.14487 -1.23444 -6.41515
O -2.88845 -7.38466 3.68602
O -3.11871 -1.71705 -0.104921
O -5.15039 -8.6006 -6.72975
O 7.66633 7.62857 2.33856
O -5.10466 8.89825 -6.68228
O -7.53937 9.64716 2.87621
O -5.28603 -1.78271 -6.99731
O -9.42314 10.2201 4.43088
