585
Atoms. Timestep: 1790001
Si 10.1133 -0.136815 -10.0511
O 9.59115 0.0829999 -11.68
H 8.92542 -0.537564 -11.9524
Si -7.77483 -0.00843327 -10.351
O -7.46469 0.474106 -11.9361
H -8.17688 0.371641 -12.5564
Si 2.01978 -1.50182 -10.361
O 2.61757 -1.37196 -11.9637
H 2.41812 -0.518583 -12.3304
Si 3.6773 -4.06841 -9.66675
O 3.85505 -4.62103 -11.2732
H 3.77612 -3.98055 -11.9704
Si -9.37053 -5.23705 11.0954
O -8.66944 -5.68684 12.5782
H -8.46174 -4.92223 13.1024
Si -7.84158 -2.47933 10.9729
O -7.65867 -2.54753 12.6445
H -7.5963 -1.72329 13.1127
Si 0.835588 0.194286 1.00823
Si 6.65506 7.19421 7.09643
Si -9.47836 5.07371 7.43335
Si 4.16606 -2.92638 2.20066
Si 10.0308 1.80908 -7.51039
Si 8.94319 -2.47965 -8.48465
Si 5.17482 0.551728 6.51319
Si -6.8996 -5.4593 7.08978
Si -4.40927 -3.46149 2.78988
Si 8.55915 0.492256 9.23535
Si 8.12336 5.6172 -0.458367
Si -2.84001 10.474 3.78553
Si 1.25212 8.18196 -2.83721
Si -1.09223 -7.01968 1.3552
Si 2.47319 1.17465 -1.36695
Si -6.61893 -2.94854 -9.7493
Si -10.4871 -0.996393 -6.20036
Si -3.7992 6.82858 1.81585
Si 9.43168 5.78825 -5.67343
Si 4.81288 9.84124 1.86143
Si 10.3474 -5.80153 -2.15571
Si -3.33612 7.58587 4.82527
Si -0.672813 -4.41389 -0.370856
Si 6.24004 -7.23116 -6.17967
Si -8.62157 -1.318 -1.86999
Si 4.51694 6.32794 3.51043
Si 2.79593 -1.18933 -3.37051
Si -9.8431 8.50832 1.35831
Si -6.31442 -4.17028 -6.99882
Si -9.56527 -0.0581898 9.80366
Si -10.3194 -2.48445 7.97149
Si 6.89434 -2.30666 9.39528
Si -1.8525 -6.79698 6.32349
Si -1.04165 -1.60082 -9.8246
Si -9.26117 -7.07986 8.48868
Si 5.94611 10.1709 -2.54825
Si 4.2579 9.42711 4.62668
Si -3.18561 -6.36353 3.52591
Si -3.9692 5.77988 -5.74135
Si 0.857023 -0.27809 5.70288
Si 5.55905 -0.50939 3.57832
Si 9.76955 -8.70092 -2.48689
Si -4.74814 -7.5426 5.88786
Si -7.62659 -5.55645 -9.24052
Si 10.434 0.774211 1.49606
Si 6.07317 10.0885 7.01361
Si -3.5895 -2.94903 -9.45242
Si 3.94103 5.48257 6.34449
Si 9.35038 -7.50658 -6.79973
Si -1.43869 7.02293 -6.97063
Si 2.06105 3.71577 -7.98179
Si 8.467 7.70278 4.4894
Si -5.47213 -10.0263 -7.1602
Si 4.04771 5.0518 -3.57393
Si 8.19735 -7.88798 4.48721
Si 5.86157 -2.41516 -8.17793
Si -0.339368 -10.082 -3.17132
Si 2.82075 0.733061 -8.22696
Si 8.88353 10.4582 5.58677
Si 4.879 -10.0548 -5.34347
Si -8.32657 2.60238 8.67332
Si 0.0810462 2.62933 -5.71993
Si -0.530826 -4.11813 7.20873
Si -8.8899 -3.1872 0.664907
Si 0.395569 4.5989 3.69389
Si -3.32844 9.73455 -3.572
Si 3.6819 2.78423 7.8408
Si -4.97045 -10.2919 -1.04447
Si 4.61048 -5.74927 6.44246
Si -1.05978 0.296372 7.91527
Si -8.989 -3.76347 5.41783
Si 1.18064 6.63777 5.69597
Si -7.88034 0.923842 3.21885
Si -3.38859 0.126114 -1.30377
Si 7.06548 -4.65101 -4.49408
Si -2.36372 0.93716 -5.51077
Si 1.08393 9.48718 4.42791
Si -4.10254 -3.55364 -3.05053
Si 9.03676 0.768862 6.05412
Si -5.86024 -2.83953 8.65678
Si 1.87881 1.78716 3.56595
Si -5.73179 6.4562 -0.601884
Si -6.12981 7.92184 5.78869
Si 8.13429 -1.78509 4.60898
Si -3.29873 1.75321 4.00642
Si -6.00325 -7.48611 -1.43429
Si -8.5227 -8.84893 4.45216
Si -3.19801 -7.80799 -6.2368
Si 9.26817 3.71296 1.79266
Si 2.64781 8.90875 -7.97449
Si 3.43406 -6.32772 -7.41336
Si 0.986256 -0.476533 -5.93331
Si -9.17931 3.74957 -6.10726
Si -8.52367 1.39433 -0.907057
Si 3.98605 -5.88253 3.40209
Si -5.95058 3.18824 2.94244
Si 5.77031 0.348413 -7.04234
Si -9.88328 -8.04366 1.85505
Si -8.33627 -8.37209 -3.4955
Si -10.2497 -10.2142 -7.42602
Si -3.98639 -1.24914 4.94516
Si 6.4897 -8.04385 7.18425
Si 1.877 0.512791 8.64255
Si -2.83384 -2.13855 7.83741
Si 0.763942 -3.34389 -2.97073
Si -7.29446 -2.18965 3.14487
Si -7.30421 -6.48731 -5.64975
Si -0.537453 -3.06108 -6.98456
Si -3.19992 -0.0764218 -8.3814
Si -9.97719 3.05861 -3.0755
Si -3.42108 6.59588 -2.78625
Si -7.79178 -8.38885 -8.24071
Si -0.136726 -8.21692 -5.73547
Si 8.36745 4.77416 7.17264
Si 2.54912 -3.81564 7.39009
Si 7.62643 3.20452 4.54633
Si 0.999299 -6.40219 3.60745
Si -7.90953 10.1248 -5.35155
Si 4.75693 5.08823 -6.63684
Si 7.02303 -3.8338 0.970146
Si -5.76236 -10.1352 4.8962
Si -6.45883 -1.77549 -4.09385
Si 4.13604 7.72056 -1.81708
Si -1.94956 1.82524 0.964583
Si -5.08301 1.06425 -3.90955
Si 6.63387 -6.86281 1.87381
Si 1.13059 -5.23975 -5.58976
Si -7.58474 8.9674 -0.734633
Si 9.52416 -2.21605 2.11063
Si 2.38531 -9.22609 -7.26942
Si 3.96498 3.46851 0.359247
Si 2.87794 6.35678 0.791517
Si 6.13752 3.71902 -1.91836
Si -0.385533 -8.87457 5.01455
Si -9.52638 -9.98164 7.24283
Si 1.13344 -2.84345 1.7322
Si -5.95709 1.04832 -8.09154
Si -9.67649 7.38716 4.11086
Si -3.86226 8.69018 -6.4924
Si -2.65739 9.52659 0.82386
Si 9.05347 -4.25121 10.059
Si -6.08775 3.36018 -5.81514
Si 8.53155 8.68156 -6.82237
Si -10.253 -6.37256 4.36106
Si 8.09963 1.85687 -3.33928
Si -8.71427 8.06293 7.08116
Si -1.75369 -1.35554 -3.30006
Si 6.76794 7.24404 1.88807
Si 0.966546 -3.34427 4.82196
Si -7.36356 -1.53502 -6.93164
Si -7.05683 4.81744 5.38832
Si -6.50496 -0.573261 6.57458
Si -0.530913 5.86222 -1.67575
Si -5.69767 2.53745 7.26247
Si -1.42682 4.97799 1.11432
Si 7.08978 -3.98764 6.5744
Si -8.87983 1.01973 5.95113
Si 9.39023 -10.1663 0.272149
Si 9.44054 -1.03866 -3.11861
Si 6.42881 -9.30438 0.0888921
Si -3.50961 -2.84707 -0.244744
Si 7.41494 3.1361 -6.31429
Si -9.2773 5.57572 1.82589
Si 8.1729 -3.74345 -1.87072
Si -6.94911 3.95437 0.3788
Si 8.8534 -6.24118 7.81817
Si 1.15614 7.45683 -5.70669
Si -8.32241 -6.16152 -0.0622452
Si 1.65799 9.16769 1.41608
Si -0.256478 -9.86621 -0.101892
Si 1.23079 3.61038 -2.97331
Si 4.96754 2.34983 3.13515
Si 6.61972 2.45306 8.47344
Si -1.39509 5.26799 6.03296
Si 5.27631 -2.19514 -5.27571
Si 5.47828 8.26594 -7.07986
Si -2.64034 2.82255 6.88796
Si -3.25386 -4.63967 -7.12222
Si 10.2769 5.95198 -2.59975
Si -10.4104 -4.94734 -7.95794
Si 1.10743 6.39619 -8.41454
Si -9.35788 8.63301 -3.21382
Si -4.56549 -6.50685 -3.96959
Si 4.06829 -1.37577 8.81956
Si 8.71755 9.99838 -3.92963
Si 10.1473 -5.2158 -5.10587
O -7.13252 -8.24548 -2.40961
O 9.45918 -4.69381 -1.48668
O 2.44663 10.4653 -8.17798
O -0.647884 -8.47124 0.687912
O -7.27045 -4.89161 -5.97998
O 4.16445 -6.22697 4.96894
O 0.315481 -10.27 4.95429
O -2.92991 1.17828 -0.133807
O -1.99079 6.03221 -2.39638
O -4.16613 -3.71749 -1.46433
O -4.3915 6.55282 -1.5437
O -3.81622 -2.34757 3.80382
O -4.09346 2.56865 7.41884
O 1.45564 6.30385 -6.83974
O -8.93156 -1.25046 -6.73677
O 10.4316 -6.43437 7.66311
O -2.36054 8.33576 -7.08342
O 3.51077 4.39876 -7.51024
O 3.96122 -4.24798 3.13618
O -9.17719 10.2797 -6.35522
O 9.91729 1.04631 -9.01962
O -8.78523 1.3209 9.52203
O -6.5249 -2.61836 10.1216
O 5.05052 -10.2654 -3.77948
O 5.24798 -10.0529 0.849148
O -10.0979 4.48632 -2.42733
O 0.945958 3.41087 -6.80886
O -5.97091 -3.1238 3.14968
O -10.4075 4.47485 2.00339
O -7.74405 -4.49347 6.08338
O 9.56526 2.14179 1.61642
O -8.00643 -9.64091 -4.36242
O 5.08042 2.79527 8.74139
O -3.98281 -4.95507 -3.84939
O 5.46433 -6.85971 7.3439
O -4.3436 -8.83825 -6.72107
O 2.46879 2.01251 8.62964
O -7.09114 7.88264 7.12263
O -2.46011 5.8862 -6.51249
O -6.44427 -5.27483 -8.19464
O 4.98547 -6.63654 -7.06546
O 0.888835 -3.36393 3.18805
O 7.23547 -4.50291 -2.88065
O 0.302684 -6.62246 -5.52914
O 1.09731 -4.32428 -4.24518
O -0.453782 -3.49245 5.73204
O 1.89656 -0.155482 -7.20319
O -1.16636 -5.59598 7.14196
O 2.88302 -7.81179 -7.85022
O -2.09811 -0.422298 -2.11193
O 7.87987 4.37595 5.72934
O 10.0158 9.47198 0.632723
O 7.44719 10.3563 6.24167
O 0.894227 -8.96376 -6.76457
O -2.20915 -0.75327 8.37021
O -8.645 -3.84042 10.5917
O -2.37373 -2.40663 -10.3963
O -8.38801 -2.84354 4.20338
O 1.20559 3.2651 3.35228
O -9.64986 7.13534 -2.8049
O -4.64266 2.6269 3.71469
O 6.37311 -6.0512 -5.04214
O -5.11109 -3.07536 -9.94318
O -6.7678 -2.2371 -5.62131
O -0.949302 -8.11301 6.26505
O -4.18535 -2.57203 8.56583
O 9.8025 -8.98662 -7.00869
O 8.53669 -0.695192 5.76615
O 2.62436 -0.265115 -9.53794
O -5.1329 6.74555 0.91312
O 1.06522 -1.61652 4.88946
O 2.60156 6.42829 6.30026
O 4.29393 0.729879 -7.473
O -10.2844 -4.52259 -6.43219
O 1.91605 7.7063 -8.85647
O -0.734267 -2.60905 -8.49742
O 10.1322 -4.61574 11.1328
O 3.45864 -5.07674 7.32914
O 7.51419 3.64807 8.03196
O -0.535529 1.09491 0.910435
O 4.07322 1.76465 6.66378
O -5.00322 4.55618 -5.94494
O -3.16516 -1.80363 6.24686
O 0.69475 8.14348 5.27065
O -0.443822 7.50876 -5.78822
O 4.44862 -1.59282 3.04435
O 8.56438 -4.68826 -5.10017
O 6.32709 8.59628 7.74898
O 7.1021 4.96347 -1.54984
O -6.26083 4.91092 -0.736365
O 2.68808 9.65791 4.71494
O -6.81498 4.13269 3.95768
O -2.5683 0.20741 -6.94419
O -8.15204 -6.9513 -4.34664
O 5.36993 -1.86536 9.66887
O 7.4633 6.71026 0.557863
O -3.87847 10.0719 -0.0309882
O 9.27593 6.19521 -1.36877
O -1.32263 9.92677 -0.0350585
O -0.113961 -9.53402 -1.7167
O 5.25126 9.48991 -5.96958
O 8.26724 4.66835 -5.86697
O -2.17397 4.34347 7.02454
O 9.71058 9.53786 -7.67352
O -9.07686 9.51983 7.62807
O 4.41953 7.80673 4.14325
O 3.30136 2.14793 -0.32616
O -1.65201 -8.26522 -6.33862
O -8.85081 1.99201 7.20224
O -3.18931 -4.25996 -8.66065
O -6.29058 9.34706 5.11511
O -9.90419 -4.87305 4.72726
O 5.24655 -0.0816317 5.11024
O 1.53002 2.28132 -2.08565
O 2.98566 4.75959 0.487628
O -2.85093 -2.50864 -3.41143
O -3.22921 8.19009 -3.13627
O -1.62713 1.77086 7.61727
O 2.71811 -2.75438 1.42349
O -6.88674 7.4602 -0.900104
O -6.17364 -4.27839 8.01675
O 8.34879 1.8833 5.15195
O -5.91101 -0.258756 -4.21252
O 5.90744 6.18619 2.73395
O -9.41456 -6.44589 10.0279
O -3.17812 -6.26856 -6.86398
O -7.75947 -1.68629 -3.16544
O -2.60721 8.98659 4.48737
O 5.24376 4.10267 -3.1486
O 2.04357 -2.44801 -2.68655
O 7.09718 -0.991661 3.71067
O 9.93484 -10.2539 6.8288
O 2.49646 -6.44561 3.02854
O 9.44664 -7.14678 -2.17769
O 0.0626487 -1.73471 -6.26923
O -2.46909 10.2314 2.25541
O 9.77752 -3.87793 -8.73812
O 5.19811 8.89774 -1.90945
O 9.54453 5.9706 -4.02778
O 0.509752 9.51097 -3.26291
O 6.19841 -9.60847 -1.50361
O 0.0345905 -6.44473 2.32712
O 1.65592 0.89122 2.23654
O -4.32487 -7.22067 4.29902
O -6.08912 0.982583 6.87319
O -8.9963 -9.63435 5.76782
O -9.43628 3.08334 -4.64159
O -6.92589 1.92147 2.46154
O -10.1712 -0.942259 -2.18958
O -9.78707 1.03624 0.07925
O -5.35463 -2.66512 -3.53143
O 1.26648 5.75297 4.33983
O 8.74599 2.72868 -7.28463
O -10.1943 5.08052 -6.18414
O 7.36703 9.67187 -3.09885
O 1.86009 -0.835893 -4.62234
O -9.00916 -5.16177 -8.58033
O -7.62103 2.56332 -0.232746
O 7.49315 -3.0335 5.37513
O -0.564991 -0.141392 6.47373
O -9.20745 -5.99941 -1.34887
O -4.43616 0.727551 -2.45316
O 0.0459771 -4.28069 -1.87689
O -6.56943 6.39476 5.28573
O 9.01845 0.932689 7.70298
O -9.28153 -0.253003 -10.0311
O -6.5182 10.3975 -6.04632
O 8.7574 -2.41429 -2.65887
O -4.61795 9.65577 -7.48378
O 5.94444 -9.44391 7.65256
O -7.15791 -1.5042 -10.0517
O 3.46753 2.10213 3.68074
O 3.43552 -5.26911 -8.67069
O -3.82309 -4.93492 3.19663
O -9.10219 1.94876 -2.24061
O -6.88565 -2.85804 -7.9833
O 9.94608 4.74879 7.16273
O -2.73243 2.44174 5.31847
O -9.07386 7.90976 5.46268
O -2.02811 -3.67308 -6.54906
O 1.98011 8.6611 -6.54083
O 2.63675 8.33389 -2.05113
O 4.96409 -3.18604 -9.20365
O -8.46154 4.83044 6.17234
O -8.50312 -4.7321 0.695481
O 3.4671 -9.56392 -6.03512
O 8.54011 4.44071 0.577017
O 7.01926 2.44329 -2.28786
O 1.50731 4.91729 -8.93418
O 4.10897 -1.93106 -4.15773
O 0.48028 -4.2522 -6.67759
O 5.66067 -0.659649 -5.69396
O -9.89696 -1.12958 8.54578
O -4.44129 0.854937 -8.66081
O -4.34044 -10.5024 -2.53349
O 0.553817 3.28073 -4.37127
O -9.24817 -8.99814 3.01239
O -7.09864 1.02262 -9.31102
O -6.48744 -1.61422 7.7728
O 6.9685 -8.00895 5.52475
O -9.69871 8.47924 2.97032
O 2.49005 -2.96278 -9.79369
O 9.29798 -1.42546 -9.59418
O 9.83136 -3.34251 8.91193
O 5.78902 8.51679 1.65291
O 7.92393 -7.5462 7.89792
O 6.15367 -0.845759 -8.05725
O -3.76665 -1.63621 -8.50046
O 6.61315 -7.78003 0.613036
O 1.74665 7.5741 0.903987
O -9.63759 2.69186 -7.22005
O 8.67161 -5.59954 9.31215
O 4.31508 5.33093 4.7664
O 9.34618 -6.9166 4.95925
O -4.05516 -3.21546 1.25688
O 5.7881 -8.7622 -5.78637
O -5.89295 -6.44612 6.34936
O -4.45511 7.26385 -6.21963
O 5.17042 -6.61127 2.55202
O 8.82349 -9.39141 4.52334
O -3.66308 9.58074 -5.15933
O -8.4419 9.08469 0.662662
O -8.31743 8.84579 -4.44189
O -2.10942 -6.33291 4.76183
O 6.05177 4.11034 -6.6335
O -5.74997 -6.61089 -5.11625
O -1.63149 -3.25526 7.97172
O 10.043 -6.81273 -5.47524
O 8.4119 3.71429 3.19689
O 0.952827 -5.22689 4.63916
O -5.50839 -1.05348 5.52844
O 4.07195 5.17326 -5.1601
O -6.50143 -9.31641 -8.103
O 5.23497 6.62198 -6.93149
O 9.95871 -6.42949 -7.83721
O 7.41714 1.51881 9.55539
O 7.42059 -2.90172 -8.26317
O -8.13535 4.87488 1.03799
O -3.98377 7.06771 3.39786
O 8.19135 -5.12381 6.84406
O -6.14507 3.81713 6.36121
O -9.1584 -9.22477 -8.3139
O -2.91733 8.02928 1.24643
O 2.62488 4.42391 -3.14597
O -7.35974 -4.29437 -10.1461
O 5.44794 0.835437 2.70694
O 9.81406 6.84541 4.37251
O 8.09621 -2.87588 1.7327
O -8.67924 -1.13856 10.6409
O 8.42385 9.53918 -5.4663
O -3.8257 -1.3039 -0.602264
O 3.59348 4.17126 7.17984
O 0.591195 -7.8293 4.33317
O -1.81804 -0.250227 -9.29616
O -1.97772 -3.41408 -0.330675
O -8.92241 6.20027 3.27946
O -1.80938 -0.275789 -4.52963
O -9.34746 0.767794 2.55822
O 2.61772 -5.75779 -6.16024
O 0.315551 0.354868 8.86205
O 9.40157 -2.19189 3.72719
O 9.57514 -9.67619 -1.21838
O 6.12765 2.9431 4.13948
O -7.60268 3.92979 -6.01895
O 4.96065 -2.73606 -6.81423
O 2.33446 -3.32269 5.86802
O 7.74927 -7.42835 -6.79445
O -1.52398 2.30984 -5.73517
O 9.72328 -0.65756 1.60208
O -9.08102 4.04843 8.60371
O 0.392844 -1.4473 -10.4664
O 5.72376 -4.64329 6.2196
O 7.87343 7.68 3.00063
O -0.411941 5.11424 2.39731
O -8.88661 -7.39935 0.776409
O 0.299337 7.21066 -2.04786
O -5.90443 2.37659 -4.41038
O 8.4891 0.250104 -3.19196
O -5.36589 -9.0548 6.05574
O 7.62467 2.45086 -4.75383
O 0.40153 -3.79696 0.697888
O 0.99372 -4.03452 7.80184
O 7.12321 -5.37617 1.44995
O 3.40145 6.35966 2.33183
O 6.65604 1.59037 -6.90355
O -0.0117722 -9.03158 -4.33165
O -9.87038 6.91023 1.10427
O -6.82066 -6.47208 -0.533954
O -8.07681 -0.322599 6.22238
O -6.74532 2.75059 8.51782
O 1.75985 -0.0639668 7.09115
O 10.0986 -8.88822 1.05409
O -9.04085 -7.32891 4.7802
O 10.1436 -1.18763 -4.63318
O 2.37083 2.23965 -8.51548
O -7.82515 -0.0643327 -1.16345
O -7.76354 -7.47501 -6.83954
O 7.03384 8.42992 -7.40361
O 6.91755 -3.07876 7.92374
O -1.91926 10.4738 -3.32212
O 9.94091 0.304866 10.1145
O 1.01594 10.371 0.566226
O 9.03899 7.15494 -6.39857
O 1.63478 7.39763 -4.23538
O 6.39832 1.3487 7.13185
O 8.93382 -9.40895 -3.67927
O -4.74112 -4.07503 -6.79096
O -6.35743 9.95336 -0.865278
O -3.79513 1.24495 -4.84426
O -0.0124885 6.00752 6.53613
O 7.78695 -10.025 0.598768
O 5.18939 3.66501 -0.657586
O -10.4378 0.668183 5.69404
O 6.35719 -3.29114 -4.86798
O 4.24309 6.47494 -2.83736
O 2.96713 -0.352076 9.33724
O -9.75805 -3.10974 6.67237
O 4.68825 3.23173 1.82182
O 7.50098 -7.53255 3.06219
O 9.61137 -1.84098 -7.16311
O -3.38535 -7.2529 6.65647
O 10.1532 9.37546 -3.50542
O -7.20038 -0.574573 3.28577
O -2.41214 -6.98393 2.27573
O -0.536158 6.68844 -8.22937
O -6.43113 -0.303634 -7.34649
O -3.57882 0.180975 4.32446
O -10.3721 -6.7776 2.73304
O -2.85805 5.55581 1.50909
O 4.86387 -0.593081 7.61635
O 3.00733 0.143508 -2.46286
O 0.238126 4.57552 -2.19099
O -5.7563 3.77577 1.47136
O 4.24232 8.67949 -8.07815
O -10.3349 -5.20916 -3.63501
O -4.54781 7.77843 5.85488
O -0.702407 4.42134 4.83096
O 9.55447 2.52418 -3.21298
O -8.08608 1.53776 4.69479
O 9.14597 9.04343 4.97074
O 3.23169 9.5955 1.72147
O -9.30908 -8.69753 8.18916
O 1.17976 1.07721 4.83789
O 0.516912 -1.34996 1.50015
O 1.5654 0.287269 -0.395564
O 7.79917 -3.27922 10.3561
O -10.4193 -3.02365 1.27419
O -8.59383 9.19978 -1.95687
O -1.62033 3.39923 0.680531
O -2.43509 6.32983 5.32292
O 4.94463 9.76176 6.00711
O -1.14697 -5.90639 0.182722
O 5.04343 10.1634 3.42907
O -2.57925 1.79444 2.49385
O -1.92463 -9.32008 4.26442
O -5.07571 -6.87835 -2.57282
O -3.50027 -7.55242 -4.6587
O -8.73048 -2.48705 -0.79503
O -5.97397 2.21174 -7.01342
O -3.91962 5.92236 -4.13876
O 0.932919 9.17742 2.83213
O 7.35365 -3.45297 -0.599284
O 5.24272 6.33146 6.92295
O 7.83161 6.18528 7.62213
O -7.95369 -2.41079 1.64188
O -9.75057 -8.57262 -2.88699
O 10.1173 0.54391 -6.57035
O 7.85162 -0.955846 9.20847
O 5.54357 -3.30888 1.4039
O -0.407459 -2.16917 -3.21885
O -7.97242 -6.3612 7.90797
O 7.26392 7.36495 5.57585
O 3.92762 7.0545 -0.340693
O -6.99691 -9.3312 4.25826
O 0.420925 1.05693 -5.73834
O -5.27752 -8.73961 -0.796628
O -9.33291 6.67298 7.65471
O -4.4095 -10.289 4.04604
O -7.72832 -7.18521 -9.34457
O 3.26896 -2.68243 8.33185
O -0.768644 5.7182 -0.0871428
