588
Atoms. Timestep: 1790001
Si -4.44107 -0.665693 -9.6387
O -3.5259 0.455606 -10.6018
H -2.70709 0.111899 -10.9393
Si -7.49078 -0.400993 -9.99522
O -7.88409 0.181446 -11.4811
H -7.53493 1.01845 -11.764
Si -4.48004 5.39476 9.84018
O -4.59799 5.30832 11.5459
H -4.08821 5.8955 12.0916
Si 7.37874 -8.59118 -9.76992
O 7.58435 -9.47119 -11.2338
H 7.71827 -8.96078 -12.0238
Si 7.56549 -5.42473 -10.1264
O 8.03058 -5.03191 -11.6991
H 7.32106 -4.76859 -12.2733
Si -2.74032 -10.3903 -8.24651
O -3.36497 -10.4296 -9.85355
H -3.81359 -9.62446 -10.0839
Si -0.402176 8.58511 -8.65161
O -0.938981 8.22772 -10.2426
H -1.70477 8.70387 -10.5415
Si -7.19522 4.3542 8.75835
O -8.10852 4.38405 10.2107
H -8.31984 3.52102 10.5468
Si 4.58256 -5.29557 -1.28631
Si 0.817093 -7.92836 -3.11333
Si -2.29246 6.69681 0.122864
Si 6.06985 -9.5065 5.60256
Si 2.35799 9.92318 -8.04531
Si -7.008 -0.933936 -0.676238
Si -3.31535 8.04107 8.52667
Si -1.5728 6.24319 -4.97973
Si -8.70426 0.893226 -7.58491
Si -7.79093 -7.23732 2.32909
Si -3.91039 -5.20727 4.40255
Si 3.76906 -6.31601 -7.04566
Si 1.01656 -9.93135 -5.36932
Si 1.98584 -3.44925 -0.953153
Si -1.25545 1.57005 -6.0863
Si -3.81293 -3.38228 -3.0574
Si 9.28698 7.60519 3.2588
Si -1.24248 -8.24102 -6.82926
Si -4.47166 7.09573 -5.22068
Si -7.90381 -2.84276 5.44634
Si -9.97764 -5.52807 3.62749
Si -7.48421 -0.85782 -3.77498
Si 0.0511351 0.892033 4.32817
Si -2.64489 -3.07117 -8.78733
Si -10.0651 -2.46744 3.53366
Si 4.64603 -3.79095 5.70371
Si -6.37383 -4.32693 8.97266
Si 1.54836 -0.883919 0.476434
Si 4.19159 4.42902 -3.35134
Si 5.58957 5.38713 -6.09165
Si -9.91883 -9.32591 1.70014
Si 1.21161 7.90598 4.28746
Si 1.91507 3.38172 0.700278
Si -9.82775 6.95789 -1.48322
Si 8.01788 -1.49311 3.79566
Si 7.69183 9.35217 7.21729
Si -1.21495 3.5525 -3.60242
Si -6.88517 8.40581 2.3798
Si -9.21975 -8.16202 7.47564
Si 7.35381 3.01505 -6.50536
Si -3.37455 -10.3552 4.41691
Si 4.65003 -9.1843 -8.1696
Si -9.28152 -9.79992 4.92321
Si 4.64579 4.08856 6.00723
Si 0.649797 -4.04244 3.51642
Si 4.93638 -2.45205 -6.56887
Si 0.386722 -7.73783 1.87392
Si -8.96837 -9.8472 -2.91464
Si -2.05934 -8.42671 8.90423
Si 9.43481 -7.15264 8.7069
Si 2.77617 0.71895 -7.52549
Si 1.94711 9.32055 9.50301
Si -9.78055 -7.064 -3.59727
Si 6.5624 3.78843 -1.18908
Si -3.47842 -2.43194 -5.84089
Si 4.89796 8.37733 7.5427
Si 3.00902 -8.99134 1.88823
Si 8.10193 -8.80924 0.702338
Si -2.60537 3.97691 8.05353
Si 5.4343 0.620446 -5.9753
Si -4.12281 -10.3986 7.30044
Si 6.98591 -8.92811 8.45825
Si 9.09807 -6.67297 -1.44226
Si -2.56434 1.79393 -1.40248
Si -2.16829 1.28651 6.47663
Si 3.24416 -8.0483 -1.07089
Si 5.85629 -1.36798 1.48169
Si 9.22792 4.82616 -2.47115
Si -7.00618 5.64715 -1.30672
Si 3.09252 5.93705 -0.770863
Si 0.788285 6.12066 -6.96067
Si -10.254 9.08677 -7.4135
Si 6.88049 4.23883 1.66944
Si -9.18774 -2.11461 -8.09035
Si 3.11163 -1.92114 -8.89549
Si 2.6479 1.10953 2.78781
Si -6.46317 -9.74388 3.72492
Si -3.12698 -1.51997 6.70889
Si 5.84105 -2.48473 -3.70924
Si -4.86663 10.1334 -5.93089
Si -10.1649 6.11248 -7.23013
Si 2.65266 6.63482 8.96236
Si -6.61712 -5.59778 5.97669
Si -4.11542 0.439393 -6.6832
Si -2.696 9.14518 1.86615
Si 5.29083 -5.24028 3.1306
Si 9.64615 -9.1845 -7.59768
Si 5.32932 -6.31509 -4.26169
Si 7.30123 -2.7536 6.34162
Si 9.86057 -5.02226 0.84742
Si 5.02464 8.25091 0.136745
Si -6.11046 -1.58021 7.73558
Si -4.35196 -9.02154 -3.38093
Si -3.4211 -4.59588 -0.264176
Si -9.48552 -2.668 -0.135327
Si 9.68341 -4.95335 6.4926
Si -0.201659 10.4416 0.548168
Si -7.34592 3.85576 -3.60529
Si 8.50232 9.92026 -5.70635
Si -6.83774 1.40886 7.4138
Si 7.29178 2.60345 5.90075
Si -6.23011 6.16126 4.57127
Si 4.20831 -9.87334 8.96129
Si -6.086 -1.08427 3.46623
Si 9.70801 -0.228788 -0.970922
Si 8.60061 -0.010784 6.34585
Si 9.69714 9.35957 -2.782
Si -3.28383 -6.67592 -5.11025
Si -4.5264 7.44162 -1.96247
Si -10.0743 -6.4398 -6.71646
Si -6.5106 -3.67323 -4.36694
Si 0.242882 5.11584 7.65533
Si 4.1129 7.0494 5.02795
Si -9.52522 1.02322 5.81969
Si -8.37667 -4.72548 -2.00847
Si 5.05286 -4.03046 -8.93675
Si 7.63148 -4.677 -3.30564
Si -7.57781 -4.77284 -7.05882
Si 10.4176 -0.337879 -4.00691
Si 6.73831 0.72242 -0.528736
Si 0.962665 10.0479 6.63911
Si 3.53192 -2.89293 3.07017
Si -1.46961 -1.87791 3.99412
Si 0.172785 -2.45151 -3.19367
Si -6.63333 1.67719 -5.35485
Si -0.895159 9.91228 9.10875
Si 0.528351 -0.950106 -5.92768
Si -6.60972 -9.11945 -1.13527
Si 5.32049 -9.27069 -3.23537
Si -0.645724 -5.25521 -4.14678
Si -3.82637 -2.85479 2.28762
Si 3.14156 -8.73765 6.31604
Si -10.2203 2.78735 -4.25877
Si 6.99324 10.0422 -1.39922
Si -8.2084 4.14799 0.991688
Si -1.55698 -9.79827 -2.1973
Si 0.632082 -5.7458 -7.0509
Si -5.22634 9.51289 0.107403
Si -6.31408 -6.09611 -0.054449
Si -3.48414 6.07458 6.07879
Si -7.44604 6.38569 -5.49516
Si 10.4831 8.44265 6.10441
Si 0.351217 -3.01131 -8.42987
Si 9.8851 4.5374 2.33737
Si -0.815013 5.62263 4.66097
Si 0.994076 3.09143 -7.20742
Si -3.18926 3.82106 0.84415
Si 2.19975 9.18551 1.58857
Si 2.75016 3.64394 8.60685
Si -0.618198 3.43589 2.36837
Si 10.2032 3.22445 -7.40039
Si -4.3736 -6.34997 9.10839
Si -8.96523 1.43632 0.0295784
Si -9.71883 8.67176 1.22877
Si -0.335967 8.85686 -3.6843
Si -3.98879 -0.867513 -1.24325
Si 5.76432 -8.26585 2.86222
Si -2.54118 -4.46721 7.15249
Si -8.70034 0.140993 2.74257
Si 1.65358 2.83868 -4.00423
Si -0.38094 -6.58811 7.01063
Si -8.83161 5.9045 6.45918
Si -5.69787 3.6233 2.72937
Si -6.36173 -8.26537 7.48063
Si 6.82566 -4.15187 0.677474
Si 2.26532 -5.84621 5.70654
Si 10.1198 3.74304 5.21868
Si 4.96942 0.214726 -2.87094
Si 8.51522 -2.51943 -5.06943
Si -1.07064 -0.752186 -0.749484
Si 3.60263 7.49266 -6.82415
Si 8.41345 5.54259 -5.21352
Si 2.34613 1.2525 -1.72057
Si -9.36866 -5.30996 8.61043
Si -4.63222 -4.74168 -7.33644
Si 0.604879 7.9732 -0.746631
Si 6.28614 7.14784 2.7211
Si -4.80991 1.42367 4.82477
Si -0.264379 -5.0722 0.583033
Si -1.74581 -7.53816 4.25653
Si 9.30283 -3.85121 -7.8296
Si -7.85827 9.42262 -5.28438
Si 5.33452 9.93441 -5.62554
Si 5.26556 2.35842 3.64424
O -8.91521 -6.57128 7.71047
O -5.4028 -5.40334 4.9554
O -3.76256 9.81793 0.823339
O -8.28643 10.1615 -3.94099
O -4.78686 -5.55266 -0.16415
O -0.508595 4.56979 3.46561
O -8.71343 6.10808 -6.40637
O -2.53403 -1.71188 5.22042
O -10.3656 -10.442 -2.42371
O -1.28095 4.87248 8.18063
O 4.88626 -10.3472 -4.32766
O -7.21394 -1.16576 -2.23063
O 3.13392 3.32746 -3.75593
O 1.24377 3.97097 8.05687
O -5.80998 6.30315 -5.77735
O 4.01826 -4.38406 2.64918
O -0.442411 2.47333 -7.14135
O -0.2265 -9.27791 -6.0747
O 10.0688 -5.7218 2.25966
O 4.18538 -2.88054 -9.59161
O 10.0225 7.9216 4.65975
O 2.08267 -10.4135 -6.59474
O -3.29122 2.7282 -0.26871
O -9.47579 7.37691 6.70059
O 10.3843 1.24337 -4.37794
O 2.082 2.44205 -0.639719
O -6.39841 7.35498 3.48581
O 3.46989 -8.88275 7.88663
O 10.421 -7.78374 -7.46539
O -1.3622 10.0003 -3.22175
O 1.08315 4.66678 -7.63929
O 6.36842 -4.69425 2.1301
O -5.83174 5.12451 9.03113
O -6.44914 -7.62293 -0.559197
O 4.04333 7.2421 8.26519
O -1.0778 -7.16348 5.64586
O -3.95971 -0.858495 -5.73269
O -7.55614 -4.05244 -3.18752
O -8.38922 -1.60137 -9.43731
O -2.59968 -2.51043 -7.25416
O 0.161878 -6.6126 0.730362
O 7.2416 -2.49631 4.7328
O 10.3837 -2.75483 -8.24282
O -7.9761 -2.02454 0.0932736
O 1.43106 -8.82892 -4.2995
O -0.557107 -3.85536 -3.41545
O -3.50388 10.1152 5.9244
O 0.371362 3.56823 1.12232
O -4.00746 -10.4419 -7.22608
O -2.39426 -2.18583 2.71992
O 7.90199 4.30915 -1.79896
O 3.16959 8.57088 -7.94364
O 10.0626 -5.16515 -7.23743
O -8.29834 -3.30632 -7.36867
O 0.769802 -4.28053 -0.328116
O -5.39927 -0.888996 -0.459414
O 2.19575 -0.0136572 1.69472
O 4.47521 -6.10877 -5.60264
O -3.04444 -9.32879 7.91679
O -3.28957 1.50259 5.31941
O 2.50218 7.06743 4.78633
O 6.10783 3.98861 -6.79906
O 7.00975 6.06463 -5.75671
O -3.85913 6.86134 9.47501
O 0.077143 7.29293 -7.83801
O 0.256582 -6.43744 -3.44363
O -9.48198 -1.29941 2.59049
O -0.0881041 -0.916464 0.471593
O -9.07952 -0.7056 -3.85136
O -7.43158 5.31234 0.167613
O -9.07723 -8.47822 -3.69984
O -1.38591 2.48451 -4.7614
O -4.58132 3.98355 1.60441
O -2.33218 5.88569 4.99625
O 7.46959 -7.0173 -10.0168
O -4.36976 -10.0734 -4.61738
O 7.68427 -10.3864 8.29682
O 5.36822 3.92244 -2.33494
O 4.06739 1.17614 -6.71996
O 6.01056 7.86023 1.31211
O 1.82207 -0.0707788 -0.931061
O 6.99397 -1.12647 2.5909
O -4.40047 7.32718 -3.57457
O 0.104453 -4.598 2.13609
O -8.33215 6.50577 -1.75988
O -9.21054 1.09998 1.58455
O -9.19378 -0.629374 -7.2622
O -3.10473 -4.6942 5.66641
O -0.558109 -1.59332 -2.05414
O 3.94486 -6.7182 -0.710908
O 4.4652 -1.86852 2.21092
O -3.05188 -2.98512 -4.44671
O 6.73324 1.5867 -6.19891
O -0.695734 1.23714 5.76773
O 9.66144 -1.43575 -4.91515
O -2.35964 -9.05063 4.37234
O 1.64781 8.32245 2.77274
O -8.71152 2.94776 -0.0693774
O 1.42144 -5.1505 4.47616
O -3.55254 -1.99909 -9.6775
O 1.84034 -9.69833 6.14167
O -1.11899 -3.0341 -9.19193
O 0.898208 9.05517 5.33782
O 3.02661 -8.87702 0.284476
O 1.61803 1.51199 -3.11863
O 7.68254 7.7725 3.29457
O -6.9112 2.76901 8.33102
O -8.65868 3.02007 -3.77746
O -0.296417 -6.95886 -7.29084
O -5.37817 -7.437 8.45937
O -8.4609 8.17489 2.03862
O -1.24879 0.851418 -1.03854
O 0.0195711 -5.07698 -5.67359
O -8.19356 0.996825 6.66873
O -5.15186 2.37402 3.60492
O 6.4754 -3.61697 -2.83095
O -7.65627 -9.80341 4.77627
O -7.82593 -8.72542 7.95383
O -4.05928 -5.81327 -6.27306
O 4.41499 6.87441 -0.424046
O -10.0949 -4.43051 7.43278
O -10.336 4.72338 -7.9797
O 0.458477 9.57566 9.90391
O -2.28938 2.55128 7.50027
O 8.64719 2.99749 -7.4781
O 3.1029 -0.320272 -8.71687
O -7.15354 -0.240622 2.66708
O 8.85236 5.87988 -3.71119
O -6.86957 -8.36249 2.97487
O -4.18638 9.34727 8.19649
O -5.32002 -5.21245 9.76687
O -7.26987 -2.13149 6.71374
O 1.94894 -7.8677 2.32245
O -4.35862 -0.123123 -8.14984
O 4.47179 8.26003 5.98223
O 5.81179 -3.27695 -7.64929
O 8.05556 -7.82997 9.0415
O -9.50393 10.2739 1.03265
O -8.51335 -5.98052 -7.07853
O 5.21548 0.648803 -4.38566
O 10.0488 3.66901 3.62393
O -7.82789 1.55794 -6.40091
O 5.12752 -6.79434 3.00842
O 3.51567 -2.44201 -7.33421
O -2.0043 8.74921 9.07019
O -6.77782 -2.08024 -4.60214
O 8.56118 -0.290669 4.7103
O 0.170993 -9.17527 1.16633
O 6.12016 2.99447 2.32033
O 10.4396 -8.35764 8.29228
O -1.45484 -9.71625 9.62828
O -4.95868 -1.80926 2.51894
O -9.26315 -3.51759 -1.49422
O 9.59639 -9.04235 1.28696
O -8.80238 -8.10713 1.44549
O -9.90269 7.77539 -0.0614181
O -5.93748 -0.806587 -10.0324
O 9.3137 9.02569 -6.71717
O 10.2332 0.203592 6.40513
O 1.84926 9.38433 7.82947
O 2.1351 -2.29263 0.186443
O 3.40247 -4.18664 -1.12023
O 10.2151 5.65033 -1.51233
O 0.378673 3.668 -3.35307
O -7.65868 5.24865 -4.39318
O -6.10959 -5.04058 -7.89357
O -3.98872 -4.15265 3.24249
O 1.93123 -3.0446 3.12791
O 9.50509 6.04213 2.78235
O 6.13152 -4.8077 -9.77146
O 10.1969 -5.4162 5.01764
O -3.46995 4.26149 9.32017
O 4.98973 7.42156 3.64335
O 8.5362 4.00149 1.5906
O -3.66738 0.618163 -1.86649
O 8.55523 -3.19398 -6.50565
O -9.93853 1.94329 -7.89252
O -6.88461 -2.28413 4.28445
O -10.3854 3.26297 -5.82227
O -2.62565 -0.0826065 7.10538
O 10.1577 -5.96447 -0.407345
O -6.30853 3.08222 -4.60726
O -4.10842 -7.55034 -4.05754
O 2.734 4.75162 0.273512
O -5.25907 -0.0498322 4.39916
O 5.17709 -10.0648 -6.94954
O 2.18647 -6.22992 -6.83572
O 6.30999 4.53436 0.187401
O 8.44256 -9.06236 -8.66711
O -0.0270016 5.25994 6.07532
O 4.76089 5.03044 -4.75536
O -4.46269 8.61662 -5.73595
O -0.51235 0.234379 -5.88726
O -2.19011 -5.68992 -4.38969
O 5.78305 -3.21345 6.67789
O 9.14484 -6.18615 7.47405
O -7.27668 -5.14977 -0.908524
O 7.53582 -10.0909 -0.131026
O -1.03185 7.63627 -4.36481
O 0.591813 9.67926 -4.68407
O -3.30419 -4.24687 -1.77696
O -2.59557 -1.22757 -0.538984
O -6.92734 4.27055 -2.17128
O -10.4239 -10.4259 -8.03295
O 4.6738 6.28851 -7.06849
O -2.70552 1.18188 -6.63153
O -2.49152 5.21039 0.451762
O 5.80152 -0.0338825 0.523855
O 8.31208 9.29643 -1.94696
O 8.35984 -4.55583 0.594962
O -0.381736 5.81536 -5.89024
O 5.48082 -7.94704 -4.04175
O -0.59411 -7.56159 3.17258
O 6.94508 10.1751 5.96396
O 4.07568 -2.6677 4.62546
O 6.9392 -8.33799 1.72255
O -7.08299 3.45493 1.95252
O 2.34967 7.81385 9.93223
O 0.471781 -1.68323 -4.57103
O -3.78939 -3.47187 0.768373
O -5.11655 -4.01827 -3.69479
O 1.20938 6.40683 8.07863
O -1.84309 -5.0406 0.190404
O -5.47573 -9.54952 7.09801
O 5.6207 -9.2092 9.30141
O 3.67734 3.79611 7.25038
O -6.98339 -4.54091 -5.60971
O -10.0042 7.59814 -7.94973
O 6.68024 2.2921 -0.640802
O -6.50081 10.1529 -5.86772
O 0.34764 8.55924 -2.20584
O -8.74033 -6.49615 3.40708
O -3.0858 9.56749 3.29935
O 2.97251 -7.29389 5.68018
O 3.36132 -4.65618 6.12478
O 6.4677 1.98246 4.66986
O 1.65802 -2.4562 -9.21195
O -6.91868 0.529837 -4.29464
O -3.11793 -7.40162 9.57227
O 8.31303 -7.61685 -0.435871
O -5.67099 6.39037 -1.59439
O 1.6144 0.862109 4.07632
O 10.4493 -6.071 9.50051
O -0.601443 -0.534791 4.00089
O 9.1154 8.76469 6.89055
O 6.47477 -8.82173 4.22895
O -4.71239 -1.64383 6.92392
O 4.66328 9.85216 8.08978
O 6.44252 -8.61503 6.92974
O -3.0474 6.47127 -5.56119
O 7.95305 3.93796 -5.29031
O 0.972581 9.26043 0.368103
O 9.1774 9.68183 -4.31746
O -1.09856 -5.18433 7.24412
O 3.63044 8.8588 0.895004
O -0.854337 -7.65161 8.06785
O -1.62369 9.39662 -8.13644
O -4.93862 6.40645 5.49541
O -10.1186 -6.59851 -5.08426
O 1.99111 2.08093 -7.88714
O 5.79119 9.11232 -0.97895
O -10.1712 2.47204 5.7238
O 8.59911 3.4737 5.60266
O -5.97207 4.84149 3.72234
O -1.2599 9.65364 1.47519
O 4.5427 5.63114 5.63692
O 7.11575 -1.89017 -4.51923
O -3.46342 -5.36015 8.07382
O 5.38551 -4.83274 4.66692
O 3.82608 1.00942 -2.05534
O -2.65206 -2.89548 7.51311
O -1.8951 2.92177 -2.32035
O -3.4594 4.69146 6.88917
O -7.57589 6.10977 5.33724
O -10.0961 -3.78226 0.810512
O 4.40706 8.53944 -5.81858
O -7.7577 0.53998 -0.396841
O -9.55666 -3.98 3.39219
O 9.98141 3.65496 -3.19531
O -4.1067 -1.93684 -2.44165
O 4.42322 3.30294 4.60946
O -9.06079 -5.97191 -2.7488
O 5.94463 -8.88531 -9.1358
O 6.75645 -5.59831 -4.30938
O -0.136142 7.01589 4.2071
O 3.28769 -10.0083 -8.74583
O -3.0713 -9.32671 -2.45395
O -10.4718 8.0319 -2.50222
O -10.3044 0.998198 -0.711339
O 6.48397 -2.59559 0.661874
O 0.619678 -4.51103 -8.02416
O -2.75904 7.61287 1.3357
O -7.70659 -4.45399 5.53134
O 2.40495 2.5606 1.95116
O 10.0294 8.54099 2.16389
O 4.47149 -9.47527 5.63834
O -8.10966 5.06952 7.60072
O -0.986498 -10.3512 -0.799559
O 9.6262 -0.450374 -2.60087
O -3.50683 -4.39403 -8.45044
O 5.81457 -4.92224 -0.366936
O 2.96008 2.36825 9.41224
O -9.61514 4.62197 1.70797
O 6.19403 3.6945 6.4114
O 2.2124 6.75499 -6.43399
O -7.99347 -4.68715 9.24906
O 1.84237 -0.112019 -6.43872
O -3.03593 7.21678 7.12553
O 1.19371 -6.27906 6.83197
O -0.386374 10.2275 7.54238
O 2.93103 5.15583 9.33917
O 1.84348 7.02106 -0.742867
O -0.540645 -8.70564 -2.57153
O -10.0185 5.04594 5.76159
O 5.03639 -2.97264 -5.06874
O -5.33287 1.32198 -6.17683
O 6.52194 8.26507 7.62659
O -4.92255 -9.78331 4.11482
O 9.86179 -7.34463 -2.70347
O -6.40384 -0.0125991 8.11985
O 6.49578 5.51853 2.55263
O -6.06331 -10.2078 -0.112973
O -5.63206 -9.00582 -2.50511
O 10.4389 -1.5171 -0.380641
O 4.27249 -8.84822 -2.10434
O 1.54043 -2.84922 -2.37797
O 9.62418 6.05004 -6.13071
O 2.25728 -10.3988 2.15481
O 6.25471 0.318 -1.99542
O -9.02391 0.628079 4.28897
O -6.6776 9.89042 2.92616
O -3.22276 7.03644 -1.18008
O 7.88988 -1.339 6.88939
O 4.16545 -5.23083 -8.19061
O -4.59789 -3.42681 -6.40569
O 4.51183 -9.10167 2.35937
O 8.67658 -3.78109 -4.07226
O -0.340991 2.06285 3.27404
O -2.98085 -6.5152 3.87253
O 4.72119 -5.7547 -2.84857
O -9.01652 9.33603 -6.42152
O 3.3206 5.34281 -2.19562
O 8.24156 -5.53946 -2.16324
O 0.910063 9.51714 -8.61568
O -1.94103 -9.07491 -8.00718
O -4.93679 8.81896 -1.27515
O -9.72421 -9.5665 3.38769
O 8.26468 0.132155 -0.464705
O -6.18333 -4.9097 7.41623
O -5.75063 1.8246 6.22671
O -7.74756 0.69744 -8.90607
O 1.94517 -7.77538 -1.94473
O 4.03016 -7.78212 -7.69511
O -2.11244 3.26339 1.88756
O 0.38266 -1.99709 -7.1511
O 1.33618 2.95356 -5.56067
O -9.39347 -2.27832 4.98763
O 9.00008 -9.6529 -6.21666
O 8.45376 -3.90862 6.46941
O 4.89375 -1.41634 -3.04395
O -8.00974 -9.61617 -1.62659
O -6.08162 -2.76197 8.87608
O -9.82655 9.86161 5.64604
O -9.57276 -8.67899 6.00615
O -6.10996 8.43208 0.9827
O 7.84406 1.31097 6.63354
O 9.34028 -2.35696 3.38369
O 3.08244 10.448 9.85529
O 6.92691 9.65387 -5.57559
O 6.54999 -9.9314 -2.49672
O 4.20624 1.26035 3.14418
O -0.734946 7.22741 -0.213962
O -1.65607 5.03457 -3.90078
O -6.95786 -6.25412 1.41867
O -2.3779 -7.6807 -5.88871
O 8.49576 -4.56746 -9.0622
O 5.42976 -0.92331 -6.4884
O -7.53933 7.90666 -5.05823
O -6.7609 -7.12775 6.32926
O -0.544415 -3.19287 4.12412
