591
Atoms. Timestep: 1790001
Si -9.73432 3.86277 7.46125
O -8.60546 4.0548 8.71231
H -8.59799 3.34363 9.34214
Si 10.4763 6.70141 8.10332
O 10.1297 6.29423 9.7663
H -10.1312 6.37674 10.3375
Si -4.8834 -9.39209 9.67103
O -4.90986 -10.1418 11.1918
H -4.05154 -10.3477 11.5431
Si 6.21513 0.946749 8.4672
O 5.61807 1.15032 10.0682
H 5.50597 0.370848 10.5996
Si -4.4709 -0.423662 8.65025
O -4.27753 -0.400999 10.3442
H -4.64837 -1.13551 10.8191
Si -2.73479 2.05595 8.82914
O -2.93666 2.47852 10.4419
H -3.22092 1.78643 11.0273
Si -0.95553 9.96814 -9.69278
O -1.15854 9.62609 -11.3768
H -2.01208 9.28137 -11.6116
Si 5.01501 -1.89573 8.65529
O 5.29463 -2.37276 10.2363
H 5.57077 -3.27995 10.2933
Si -3.03411 9.35589 9.21988
O -2.68725 9.70322 10.8504
H -2.11002 9.10867 11.3149
Si -2.55452 -8.24174 -9.30103
O -3.58683 -8.06372 -10.5786
H -3.23133 -7.57349 -11.3106
Si 8.33698 9.69327 -8.01861
Si -10.4027 -10.3052 -8.04906
Si -1.44833 8.63896 -4.57119
Si 0.709902 -0.924166 -4.2566
Si -3.38735 -9.37811 7.0342
Si -3.79369 1.61754 2.25587
Si 9.86107 0.289008 -4.81409
Si -1.50789 5.0838 -6.9992
Si 6.5037 -7.9795 -1.69425
Si -9.64414 0.608737 -7.61244
Si 9.34654 -0.920622 -0.825733
Si -7.24914 -6.00435 -1.33779
Si 2.81845 -3.30647 -2.18839
Si 8.86856 9.15099 6.81878
Si 0.900822 -7.00661 -0.872171
Si 0.539308 -9.8827 2.79626
Si -5.99236 -8.96895 5.60529
Si -1.39394 -7.0837 7.78277
Si -1.14736 -4.53532 5.87296
Si -6.54488 -0.874225 -1.34069
Si 2.75589 8.0278 -6.20232
Si 5.49952 -4.39564 6.65679
Si 0.141449 6.42371 -2.90837
Si 5.0347 6.37864 -5.09244
Si -6.06817 -2.72945 8.45466
Si 8.22971 -6.40813 -7.04726
Si 1.48752 10.2602 -7.79901
Si 9.81028 5.08942 -1.52374
Si 10.3193 -9.90908 4.81516
Si 1.81171 1.48177 -0.0702481
Si -4.47254 -8.62365 -6.77214
Si -9.27429 -4.47961 -8.78656
Si -5.00617 -3.55052 2.90261
Si -6.366 -4.25901 -8.22393
Si -3.46837 -3.74827 -7.68073
Si -2.25499 7.99914 -7.58535
Si 4.3141 1.23549 -4.88733
Si -6.33369 1.67769 0.472288
Si -8.44654 2.97191 -3.59065
Si 2.36102 -0.856796 7.30054
Si 7.96958 -2.21801 -4.459
Si -4.43551 7.62209 -4.25064
Si -1.65966 3.83509 -2.65694
Si 10.4228 -5.5019 6.44662
Si -9.85296 -0.247065 6.69719
Si -8.73497 -7.98032 6.45566
Si -2.8606 8.35279 0.181891
Si -2.19652 -7.96905 2.56984
Si 8.80597 -0.747465 4.72926
Si -6.27748 -10.3812 2.99924
Si -10.4278 -8.53545 -3.59894
Si 7.94766 8.16293 4.07966
Si 2.92881 5.68802 0.35588
Si -7.89462 9.25346 -6.76949
Si -10.1526 9.49979 0.0722535
Si -8.00834 2.01246 5.54319
Si -2.78648 -1.33692 2.75797
Si -9.96102 -7.27213 -7.94044
Si 0.449383 3.90505 1.22496
Si -9.1661 0.119171 -2.63555
Si -1.22145 5.22422 5.04774
Si -4.49701 -7.54842 -1.00057
Si 7.15446 6.75162 -1.36887
Si -5.13466 3.00406 4.7681
Si 3.86327 8.23034 1.97458
Si -0.584144 -0.140284 7.94764
Si -6.96373 -3.44412 0.404972
Si -7.33381 -3.75043 4.99541
Si 2.34332 8.19784 7.19296
Si 3.25251 -1.29346 -5.88594
Si 4.41685 1.97784 -1.89231
Si -8.96594 -3.06463 7.50382
Si 9.60715 -4.62183 -3.35278
Si -9.55823 3.42107 -6.61739
Si 7.57379 8.16602 -4.16913
Si 7.73064 2.10668 4.88823
Si -3.44425 4.46883 7.12585
Si 5.05047 2.96808 6.41545
Si -5.53428 7.32573 -1.23617
Si 6.72827 -9.68228 7.10526
Si 9.77275 -7.42224 1.48934
Si 6.479 -7.12007 3.62354
Si 0.759248 -1.30252 -1.27475
Si 1.05175 8.30539 2.50487
Si 3.02687 -5.23539 0.276133
Si 1.46168 6.67165 4.91084
Si -1.71269 -2.68376 0.0827241
Si 7.85786 2.97822 1.6935
Si -3.33772 0.197415 -4.40964
Si -9.27478 -3.35245 2.44688
Si 6.18665 -5.83986 0.723511
Si 8.50596 2.89454 -3.36688
Si 5.7119 -3.38786 -3.17903
Si 5.64571 3.49036 -6.37309
Si 0.0213114 2.61431 -7.70246
Si -1.28245 0.189873 -9.09441
Si -7.43599 -10.1382 7.93469
Si -1.08549 -5.74814 -8.29701
Si 3.896 5.73442 6.40884
Si 8.34274 4.05701 -6.28712
Si 5.51932 -1.69613 2.05275
Si 2.74157 1.52035 5.13487
Si -0.926997 -0.180365 4.75809
Si 3.02135 -3.61026 2.78112
Si -9.68104 -3.68564 -5.81877
Si 6.99101 -6.11686 -4.08212
Si -7.83216 -7.25864 -4.13885
Si 0.862593 -9.05877 7.75358
Si -3.76975 4.54219 -4.95733
Si -8.07731 -10.3125 -3.91088
Si -5.69059 5.69062 3.12935
Si -6.90812 -2.71969 -5.54873
Si -9.23788 6.33584 -6.39346
Si 7.22943 -9.92738 4.11
Si 3.26512 -5.99908 -5.81604
Si -3.64845 -2.0185 -2.35309
Si -8.84302 1.98157 2.36984
Si 1.18412 5.6106 -5.39466
Si 0.51193 -1.58337 -7.13369
Si -3.76053 -7.10199 -4.06358
Si -4.07933 -6.3631 9.23097
Si 4.4446 -3.82401 -7.37033
Si -5.52031 4.67537 0.154538
Si 3.72614 -8.89804 -6.95504
Si 7.20368 1.40379 -0.952533
Si 8.77629 7.016 -6.46797
Si -1.97757 -5.9318 0.24153
Si 5.08407 3.96302 2.12788
Si -7.82291 7.99933 7.27417
Si 3.68154 -9.97288 7.3256
Si 4.30385 -10.2307 -1.55254
Si 7.10795 -3.05929 4.38939
Si -5.32816 -5.08076 6.66182
Si -7.02165 -7.06746 -6.94312
Si 4.48905 5.17411 -2.22739
Si -4.29769 -4.12998 -4.58122
Si -6.62754 0.0965232 -6.69991
Si 1.13113 -2.54295 4.93435
Si 2.81889 3.21491 -6.71291
Si -2.4082 3.69174 0.354299
Si -10.3802 4.49735 1.35128
Si -0.808007 -6.83513 -5.2127
Si 10.1485 -2.04714 -8.17446
Si 7.59435 -3.37014 -7.43053
Si 1.45459 -5.46537 -3.56376
Si 0.228433 -9.81345 -4.92794
Si -7.93403 8.43696 -1.81078
Si 0.0966997 8.19496 -0.500745
Si 6.67998 -8.94365 -7.49246
Si -4.92611 9.24411 -6.78054
Si 8.4638 -10.0317 -5.30226
Si -2.26577 -2.55261 8.12264
Si 10.3488 -0.594394 2.13008
Si 3.8413 1.0289 2.30745
Si 5.49757 6.38928 4.00006
Si 6.21623 9.176 0.266309
Si -2.7791 7.16798 3.10466
Si -7.73871 7.94649 4.08014
Si 1.3811 -9.91218 -0.342957
Si -0.610254 1.80635 -4.6882
Si -0.457837 9.00522 7.73003
Si -2.71759 8.82171 5.71151
Si -4.68274 7.31307 7.6189
Si -9.09582 -9.59977 2.25982
Si 7.58104 -6.70904 6.51964
Si 9.08482 1.93386 7.49969
Si -9.07017 5.9855 -3.21702
Si -3.92497 -3.73075 10.5749
Si -10.1826 -6.41048 -1.18005
Si 0.0303447 2.60444 4.03842
Si -5.70913 2.16119 -4.79924
Si -3.31022 -5.68135 4.19407
Si 7.1519 -3.06796 -0.269942
Si -10.4584 7.49215 2.49279
Si 8.35652 -9.6719 -0.0989779
Si 1.56446 -4.41805 -7.8504
Si 3.73984 -6.00044 4.76358
Si -4.01567 -9.90579 0.896438
Si 3.08295 10.5027 -4.37726
Si 9.34897 -5.08897 3.48148
Si -3.73224 -0.622866 -7.44121
Si 2.12643 -8.57991 5.09631
O 9.5585 9.81229 -8.9598
O 6.33595 -2.05343 0.718816
O -0.380734 5.42304 -5.85925
O -5.05085 -5.96505 8.00661
O 6.5484 -10.005 5.54367
O -5.98113 -8.25617 -7.19026
O 9.95015 -6.57569 0.160251
O -2.80876 3.42659 8.1098
O 8.74946 7.45728 -4.9943
O -6.48435 -5.77032 -7.69645
O 7.17787 -10.3244 -8.28837
O 2.49991 -4.39059 1.46784
O -9.36638 2.2119 -7.67922
O -10.3951 -8.78246 -8.36251
O 6.34255 -3.43147 -1.6578
O 7.42347 9.6083 3.52363
O -8.96784 1.7312 -2.65372
O -6.36975 0.542002 -0.672278
O 1.35724 -6.32322 -2.22573
O 8.03723 -4.20111 3.72397
O -2.01462 -4.84282 4.53092
O -2.01423 -3.57542 6.87169
O -4.21446 -4.98781 3.06935
O -5.83853 -1.16181 8.27279
O 1.15041 5.58701 -3.82099
O -1.5056 8.05683 -0.642714
O -4.27564 2.09527 3.71121
O -1.77769 6.05195 3.75812
O -0.443442 -0.829135 -8.19239
O -1.79512 -9.61586 -9.48978
O -9.07233 7.90882 3.16419
O 5.10171 6.40598 5.56182
O -7.57147 1.55681 1.55356
O 3.27357 -7.48454 -6.39836
O 9.48305 3.78424 -2.44767
O 0.934608 8.27243 7.94688
O 4.07801 7.20011 -6.05975
O -8.33349 -3.8334 3.73041
O -0.446327 7.60727 -3.82456
O 9.22772 -6.51318 2.62241
O -5.85986 -3.60377 1.52075
O -8.67596 -6.40832 -0.674657
O 2.53812 -9.57345 -7.87433
O -8.84146 4.82702 -6.92124
O 7.98577 9.71255 -4.48172
O 0.49339 0.650433 -4.46511
O -4.7123 -8.7145 6.4769
O -3.44877 -1.50476 7.95142
O -4.26436 5.72456 7.68095
O -3.58388 -3.38106 -3.30729
O -3.38667 -2.15152 -7.71528
O -8.57547 4.46041 -3.03671
O 2.9336 -5.84272 -4.25778
O 8.39959 -5.64483 -3.41948
O -0.916056 3.70295 4.72598
O 10.277 -0.547636 5.36783
O -6.63806 -10.2018 6.46547
O 7.83701 0.540125 5.00811
O 3.05923 -4.34769 -1.05453
O 0.0420007 -10.4836 7.89446
O 10.3191 0.60602 -6.3049
O -6.74098 8.22586 -0.797528
O 0.858606 2.68401 0.260635
O -2.18698 -6.87536 -4.38013
O 5.17811 -8.87025 -1.45849
O 5.04925 -6.78654 4.29183
O -1.63972 8.44659 -6.18274
O 2.24383 -1.32488 -4.59162
O -6.61944 -3.28627 -7.01339
O -10.465 6.13593 -2.48387
O 2.64223 -7.07244 4.91787
O -1.83195 -6.67004 1.62375
O -2.21266 -4.57938 -8.25121
O -3.95592 1.06006 8.34086
O 7.74001 -8.96125 -1.4415
O 8.44776 5.83243 -1.07762
O -5.88641 5.24392 1.57709
O -0.927479 -0.0213822 6.34181
O -5.46509 -3.55382 7.22043
O 5.89119 5.82889 -1.64694
O 3.27434 6.85974 7.40469
O 4.48481 -5.16555 -6.4512
O 9.91532 3.70111 -6.4924
O -4.07124 8.19429 8.80979
O -9.86431 -8.13562 1.98414
O -1.43782 1.06185 8.65155
O -7.2971 -8.05898 5.61807
O 2.69654 1.09438 1.22511
O -3.35572 -8.23321 -7.87941
O 7.94781 8.42752 5.67598
O -2.70992 8.39763 4.17844
O -4.345 -10.2539 -6.58394
O 5.32476 1.89573 7.53912
O -2.69912 0.267393 -8.27797
O -6.99524 -2.00979 -0.331562
O -10.3213 -2.46288 -6.65454
O -10.1681 -3.19261 -9.05576
O 2.92323 1.91461 -1.17052
O -9.30852 -10.3767 0.851308
O 8.62685 -2.43481 -8.21748
O 4.02401 4.7782 1.1571
O 3.78039 -9.83221 -5.67606
O -9.42184 -6.53056 6.58174
O -4.17902 -5.60217 5.55184
O -6.38691 2.21618 5.37033
O 8.86156 2.49729 6.00822
O -3.88767 4.45011 0.289979
O -6.33362 1.45281 -6.02261
O -6.00038 -3.38078 4.18817
O 9.06794 -0.64571 3.12101
O -0.837394 -8.91756 2.87307
O -5.00687 1.5561 1.31651
O 0.537594 7.92059 1.05862
O -9.87931 -10.3357 3.47834
O -4.16848 7.70223 -0.454282
O 1.07479 -9.78592 1.24688
O 4.28861 3.41552 -7.28188
O -2.96109 4.04703 -3.63228
O 4.17073 -5.22998 6.15023
O -0.906832 -5.95287 6.65259
O -5.2582 7.64466 -2.84224
O 6.53511 -6.84872 -0.507429
O 1.64853 2.71921 -7.66738
O -3.18311 -8.90623 1.83447
O -10.1594 -4.17171 7.3032
O 5.11498 -8.8372 -7.63334
O 1.57852 6.98434 -5.95677
O 2.20902 -2.03835 -1.41437
O 5.25145 9.60152 -0.956838
O -8.44012 -3.57056 1.09898
O -2.02679 3.32249 -1.1831
O 7.88539 10.2342 7.5672
O -4.11095 -7.67734 -2.60325
O 2.33429 8.9662 -7.41027
O -0.339345 -2.20417 -0.530286
O 6.54832 3.7912 1.48699
O -4.23914 6.47377 3.19083
O -6.26635 3.25535 -0.0854164
O 0.407771 -5.2285 -8.56825
O -9.80422 -0.204212 -4.06001
O 10.0814 2.98143 8.06029
O -6.23523 -9.73651 8.93169
O 6.03329 -3.52392 -7.77537
O -9.14925 6.0757 -4.8202
O 2.20301 4.51687 -6.03812
O -9.30303 -4.61537 -7.06003
O -7.18722 -6.67505 -5.42488
O 0.199324 9.58718 3.06887
O -5.218 -1.56145 -1.98428
O -9.39745 -7.53894 -4.33356
O 0.115975 5.98105 5.41146
O -1.05342 4.38641 0.905078
O -4.60805 1.14841 -4.23215
O 7.42197 -7.53834 -7.80807
O 10.4056 -4.24161 2.55645
O 4.00331 -2.62649 -6.39405
O -8.06086 8.03967 5.69211
O 1.48141 5.10852 0.799317
O 7.4574 7.79099 -2.63208
O -4.50495 -8.96039 -0.307327
O -3.09122 10.3654 6.165
O -8.12442 7.12465 -2.63937
O -9.0029 7.13722 7.95222
O -6.72344 -1.13161 -5.64862
O 8.79836 -8.60718 0.999023
O 0.811937 -8.57827 -0.948068
O -5.92386 -6.88047 -0.910151
O -3.80231 8.4091 -7.62394
O -4.43552 -7.91398 9.61542
O -4.20999 6.10557 -4.76098
O -5.78222 5.82763 -0.971707
O 0.132246 -3.75823 5.34134
O 0.299121 -1.1679 4.48893
O 2.44683 -9.21311 8.1702
O 6.90095 7.06113 3.67764
O -8.22003 -2.97545 6.1211
O 8.87518 -3.17473 -3.46736
O 1.80284 8.03537 5.65217
O 3.41898 7.13558 0.843176
O -1.67867 8.82681 8.7249
O -4.83615 -4.02845 -8.53588
O 5.32201 -3.21398 7.77551
O -3.93073 -2.38452 3.02207
O 6.26527 7.40681 -4.7655
O -2.69148 2.60068 1.5569
O 1.61829 -9.85929 -4.14074
O 3.36132 5.45304 -1.18079
O 2.04516 -0.951251 -7.01372
O -6.42668 9.34206 -7.33818
O 9.37171 7.73354 3.5103
O -5.61642 4.26641 3.92969
O -7.74699 -0.58738 -2.33963
O 10.4867 5.32233 7.3739
O -1.52166 -6.96155 -9.29743
O -6.25657 7.52497 7.49738
O 4.31804 7.29613 3.32487
O 5.49398 2.23645 -5.38139
O 4.56012 -5.63214 0.594031
O -10.4864 -7.71502 -2.19429
O -2.69094 7.6351 1.6327
O 3.25643 9.51371 7.32453
O -3.76224 -3.23223 12.0061
O -9.5319 -1.49792 7.57597
O 5.29092 4.91867 3.45287
O 7.13427 3.39986 -7.00406
O -8.49554 -7.57976 -7.39975
O 2.5069 8.94382 2.38575
O 1.60753 -9.20495 3.77423
O -2.93558 -2.24084 -0.968039
O 0.49548 10.0775 -9.05362
O 2.05027 -5.2684 -6.50946
O -2.93026 8.29147 -4.07321
O -0.00489867 -1.56622 -5.59608
O -1.56555 -0.254367 -10.5484
O -8.4443 -8.90008 7.70229
O -10.3517 5.95491 2.01346
O -4.21269 -5.29053 10.3944
O 3.27912 -9.38148 5.85189
O -4.45279 -5.69802 -4.17447
O 4.28017 1.15457 -3.32565
O -2.80881 -3.46606 9.45728
O -7.52538 -6.42002 -2.87583
O 5.50134 4.95707 -5.62389
O 6.08931 -0.644915 8.27455
O -1.91235 -4.30782 0.315841
O -10.4083 -0.560809 -8.42809
O 8.12856 -4.8981 -7.58067
O 0.8332 -3.09063 -7.44717
O -6.85232 9.22804 3.63676
O 0.554059 3.19862 2.66328
O 2.83059 0.318025 6.28852
O -3.21226 0.116426 2.32796
O 9.10602 -6.28022 6.8961
O 8.14406 0.0816365 -1.26311
O -9.09121 9.98281 -7.6223
O -0.751722 4.00478 -7.91606
O 8.68589 -0.799613 -4.63536
O 8.17698 -2.1164 5.10557
O 4.6028 4.41592 6.98486
O -8.38124 -3.14329 -5.11601
O -9.25103 8.71357 -0.9695
O -1.96056 6.41592 -7.69424
O -6.92599 2.6117 -3.81698
O -8.81918 3.19325 6.32584
O 6.55668 -5.55045 7.01117
O -2.2383 5.2733 6.25582
O -2.14875 -1.00674 4.18907
O -3.27718 -6.53524 -0.430406
O 10.4987 -4.46204 -4.67092
O 2.06314 -2.82582 3.71321
O 5.21351 -9.6983 7.65641
O 1.81187 -2.08904 6.32148
O -5.23104 -3.11317 9.74518
O 7.70641 1.5305 8.25857
O 7.20754 10.3846 0.492468
O -0.232907 -8.34 -5.14206
O 0.62925 9.72835 -0.709983
O -3.73932 -4.16087 -6.11164
O -9.3156 3.45459 1.88848
O 7.77287 -2.91886 -5.95771
O -9.84728 -6.02151 -8.98011
O -2.0254 1.0644 -4.63044
O 10.3304 8.50633 1.20718
O -10.3681 -0.483129 -1.69778
O 8.82865 -9.48435 4.26721
O -3.51721 -0.519838 -5.80545
O 6.86193 7.71763 -0.135731
O 4.63117 2.46338 2.32518
O 4.62894 3.56704 -2.23299
O -1.90503 -1.97108 1.56461
O -10.3409 4.69131 -0.302158
O 6.38974 -2.12088 3.31677
O -3.1382 -0.77715 -3.14806
O 5.61264 1.35857 -1.03749
O 10.3248 6.78677 -6.80787
O -8.62154 0.701644 6.26628
O 8.55468 -2.40192 -0.723157
O -0.651325 2.93224 -3.53167
O -4.20022 3.64842 5.95077
O -9.09788 2.97947 -5.09797
O 1.20121 7.01128 3.40427
O 9.58409 10.3724 -0.453198
O 7.47605 -6.42966 -5.57371
O 6.5271 -7.34419 -3.18907
O 7.77843 2.48173 3.33977
O 4.39242 5.90603 -3.69429
O 9.84746 -6.91869 -6.92256
O 0.973212 0.186395 -0.552604
O 3.10059 2.11563 -5.50691
O 9.82985 -0.75522 0.667042
O -5.44908 -9.60312 4.21299
O 3.50212 -4.8362 3.71686
O -3.6741 -10.1897 8.62425
O 1.25075 2.1422 4.98689
O 4.30851 -0.198736 -5.55379
O -7.61882 9.59116 -2.86409
O -3.14366 9.94347 0.367009
O 8.19891 5.56906 -6.69225
O -6.78736 -5.05894 5.85986
O -6.85043 6.65471 3.77944
O -0.394459 1.58646 -8.77926
O -2.89535 -7.20261 3.81499
O -5.36242 10.4978 1.65325
O 8.16656 8.26027 -7.32588
O -9.69265 -1.80383 2.59882
O 4.03642 -10.4207 -3.12524
O 9.95422 10.02 5.97961
O 0.203874 -5.81903 -4.45575
O -0.993094 5.37069 -2.51512
O 3.87608 2.5566 5.41953
O 7.43555 -6.84757 4.91766
O 9.29506 -10.5097 -6.80206
O -8.0831 9.4645 7.99936
O -9.61256 -9.92899 -3.5141
O -0.560009 -6.34745 -0.537582
O -5.00415 3.55065 -5.15405
O -3.88305 7.93989 6.32509
O 4.1642 -3.0809 -3.01251
O 1.01489 -0.247364 7.95179
O -4.32225 -7.97842 -5.31135
O -8.08025 0.177156 -7.39245
O 10.0611 0.614055 7.49123
O 3.13125 0.916101 3.70301
O -2.77937 4.50296 -6.19461
O 9.57194 7.94845 7.58593
O -10.0207 0.860776 2.18345
O 2.69242 5.66445 5.34013
O 6.9497 -4.4554 0.533579
O -8.40043 1.94499 3.97567
O 6.48921 -2.21542 -3.8406
O 6.07022 -3.73768 5.31567
O 7.18955 -9.37318 -6.01773
O -7.41075 -8.81719 -3.88474
O 0.671521 -10.3732 -6.42283
O -9.77516 -8.77428 5.53913
O 2.07195 -6.54238 0.106285
O -5.75783 -3.31694 -4.62907
O 4.20349 -2.70024 2.20792
O 9.38522 -8.9913 -4.51257
O -5.32878 -0.267889 -7.56941
O -1.10117 -6.45294 -6.78299
O -7.9675 10.0988 -5.37114
O -1.56107 8.85811 -8.75831
O -6.93118 -4.59954 -0.766728
O 2.85845 8.97344 -4.84821
O 6.4604 -6.36428 2.20434
O 7.46712 2.37691 -2.21644
O 8.11601 3.76053 -4.69796
O -7.61406 -9.5388 2.65503
O 5.18917 8.96873 1.51988
O -2.57554 -6.46416 8.64841
O 6.39712 2.7805 5.48784
O 10.1246 -5.23585 4.87324
O -0.40504 2.31954 -6.17396
O -0.0789611 -7.85537 8.34736
O 2.89452 -10.0919 -0.773631
O -7.67477 -3.20774 8.55141
O -5.08422 8.52722 -5.35775
O 0.682893 7.14623 -1.63003
O 10.4662 -5.10423 -2.06926
O 3.10508 -4.11058 -8.28201
O -7.73014 -4.11013 -9.12778
O -0.771756 1.1958 3.97812
O -0.908678 10.2028 -4.42117
O 4.90651 -0.169527 2.1585
O 1.67979 -3.91471 -3.13557
O 9.21554 3.81132 1.59337
O -8.30632 7.66485 -6.68977
O -2.24576 -8.37756 7.22854
O 1.00797 -8.69429 6.24208
O 7.27221 -8.17898 7.12986
O 6.57218 -8.66531 3.39232
O 3.5762 -1.30238 8.2706
O -1.22493 8.59758 6.39668
O 9.33524 1.60787 -4.01776
O 0.32782 -1.17244 -2.76245
O 6.07431 -4.81584 -3.81899
O -1.06497 -1.60068 8.41291
O 7.71279 1.97517 0.439662
