588
Atoms. Timestep: 1790001
Si 8.51904 -6.78071 10.2602
O 8.82964 -5.69317 11.5572
H 9.66893 -5.80952 11.9868
Si -4.41121 4.24526 9.73245
O -4.40829 4.9426 11.2797
H -4.44621 5.89183 11.2753
Si 8.29451 0.123341 -10.1938
O 8.06292 0.788514 -11.7472
H 7.63455 1.63534 -11.7905
Si 1.27375 0.765351 7.7487
O 1.24843 1.30125 9.3111
H 1.13056 0.653679 9.99612
Si -9.66931 -0.432518 -9.6581
O -8.62028 0.0698416 -10.8491
H -8.88684 0.0105565 -11.759
Si -3.94228 1.16211 9.94265
O -3.32446 0.89416 11.4666
H -3.21513 1.63805 12.0472
Si 2.1548 -1.99252 8.57789
O 1.74708 -1.45393 10.1226
H 1.69687 -2.15529 10.7614
Si 6.91375 -9.38842 11.1641
O 6.81229 -9.29799 12.8563
H 7.58168 -9.04485 13.3527
Si -6.4776 -9.32817 -9.36973
Si -5.49067 9.37349 -9.42406
Si -8.33864 -5.25863 8.37986
Si -7.63338 -3.0094 7.61325
Si -2.60398 -6.18344 -5.49471
Si -9.53072 -7.45645 10.1886
Si -3.50215 -1.19178 6.31188
Si -7.33649 -1.61015 4.72333
Si 0.667775 1.41897 3.97615
Si 6.90384 -3.56325 -1.96559
Si 3.34763 -6.45211 -8.50998
Si -6.53093 -6.34213 -3.32167
Si -1.83267 1.21458 7.43208
Si 8.84289 8.86057 -6.53504
Si -10.4246 7.24249 2.98336
Si 0.298156 9.19354 -9.15605
Si 8.68257 -4.0546 -7.4384
Si -3.56652 -7.10335 3.27653
Si -0.680551 -0.287962 -6.5063
Si -7.29197 2.18492 2.15116
Si 0.730242 -6.70671 -0.651227
Si 9.49497 7.02786 8.25667
Si 6.05799 8.15415 1.78372
Si 2.13074 -9.49078 7.70223
Si -1.62524 -4.58704 -0.472274
Si 0.98305 -7.37313 3.80452
Si -3.56821 0.0735173 -5.51174
Si 4.74114 0.868163 -5.7195
Si 4.69355 -5.09517 -3.6297
Si -9.49462 -3.28395 -8.64977
Si 6.10119 -0.368442 6.42546
Si -5.80735 5.47964 -5.88789
Si 0.0447047 -7.23131 -5.96608
Si -1.92945 4.56707 2.0059
Si -7.2377 -4.23984 0.783703
Si -9.67188 -10.1851 8.6837
Si 1.04134 -2.54019 -7.56029
Si 6.65938 -9.15973 -2.10955
Si 4.59561 -4.48695 -6.56541
Si 2.66975 -4.28682 0.0310764
Si -9.75003 -5.1952 -0.871646
Si 1.08946 -7.9133 -3.36309
Si 0.601337 -5.49013 -8.69032
Si 3.9881 1.9797 6.57216
Si -6.57528 6.40633 1.27793
Si 8.54363 9.52395 9.55306
Si -4.61344 8.85693 1.73621
Si -2.11698 -6.52872 -8.52599
Si -8.11778 7.25996 -1.3638
Si 1.30453 0.0737189 1.23478
Si 3.17221 9.3113 -1.88993
Si -6.43363 5.76182 7.67309
Si 5.02563 -3.03417 7.55871
Si 9.62208 4.30574 6.99686
Si -6.31717 9.65102 -2.60236
Si -5.07639 -6.84148 -8.60745
Si 9.03363 0.859998 3.10795
Si 4.74703 -8.74008 9.03549
Si 4.98709 -1.03475 -1.78226
Si 5.66743 -4.91346 0.421012
Si -8.72171 -0.969853 -6.78772
Si 6.95787 -4.3767 3.0519
Si -2.50415 -3.79669 -3.47887
Si 4.83129 -8.54947 -6.78938
Si 8.59793 6.68502 5.45813
Si 0.804638 5.84217 -2.86965
Si 0.555063 5.69664 7.06406
Si 9.89693 -2.63061 -2.17003
Si -7.13882 -8.72287 -1.31461
Si 0.0614927 -7.32055 6.93961
Si -3.10925 7.17353 -5.78118
Si -8.4752 8.94928 4.81947
Si 7.79843 -9.44481 4.96725
Si 5.92088 -5.23073 -9.29937
Si -4.53842 -1.93695 3.33234
Si -10.0636 -9.48097 5.58817
Si 3.6054 7.48656 0.432281
Si 9.04077 1.71365 0.0495278
Si -4.14436 5.5697 5.5446
Si 5.5253 -8.10711 0.485418
Si -9.15683 -0.370153 2.71282
Si -5.95298 -0.472384 8.25912
Si 3.07301 -3.77742 5.50775
Si -7.02191 7.78833 -7.38043
Si 2.50714 4.81902 1.75057
Si 2.64464 -9.15453 0.1225
Si 4.2804 7.76139 6.37875
Si 9.41529 -5.60602 -5.56159
Si 6.03905 -5.88738 8.36269
Si -8.53757 -8.79095 -7.15167
Si 8.29766 7.46618 -3.93298
Si 10.413 3.74698 -6.6521
Si 4.05111 -1.63434 -7.51999
Si 1.5024 4.43885 4.43828
Si -8.3969 5.49489 -3.95344
Si 0.997771 8.69007 -3.96105
Si -8.48869 8.0105 7.85945
Si -0.00478202 2.47958 -5.54913
Si -6.28427 -10.3833 3.60579
Si -2.14454 4.33652 7.58462
Si 6.80899 1.51245 -2.12215
Si -0.326474 9.32711 4.17194
Si -6.92647 -4.37096 -7.73358
Si 0.175988 -2.43845 -4.63133
Si -1.38685 -9.16458 2.55496
Si 9.03904 9.07438 0.972937
Si 8.27461 4.42295 -4.44029
Si -6.91431 1.29642 6.07103
Si 1.32246 -1.15094 5.66307
Si -2.08701 1.96331 3.37244
Si -1.87558 1.25811 -3.26159
Si -8.69212 -5.64921 3.06004
Si -0.423473 5.37351 -5.67901
Si 0.263765 4.3027 -0.346193
Si 1.85816 -4.46421 2.9515
Si -9.97374 -0.674771 -0.253248
Si 6.336 10.1444 7.35363
Si 9.92334 7.50349 -1.29014
Si -8.49593 3.93375 5.97028
Si -7.17067 -1.67207 -0.931769
Si 3.44512 4.91067 6.92786
Si 0.753497 -4.49556 7.49503
Si -8.5981 4.85149 2.97048
Si 5.97775 3.76065 -6.43231
Si -0.647312 -2.8359 4.01112
Si 5.74837 -10.0369 3.01673
Si 5.78018 4.23286 -1.02202
Si 10.0067 -8.90182 0.821836
Si 7.96014 1.96691 5.94268
Si 8.77045 4.66439 -1.23207
Si -1.11242 -2.01377 1.08149
Si -5.45517 -8.05447 5.2783
Si 1.25334 8.74028 6.73378
Si 6.63647 -2.42517 -9.26006
Si -2.94468 7.95454 -0.526718
Si -2.92827 -6.82936 6.2837
Si -5.97401 -1.99431 -6.03626
Si -8.4266 -6.04344 -5.64225
Si 0.647304 1.43736 -1.59793
Si -1.13644 -9.40118 -7.69539
Si 5.80311 6.43013 4.29841
Si -2.5634 7.22771 3.44736
Si -9.81568 6.73184 -6.53105
Si 3.81152 5.13794 -3.27882
Si 9.50428 -5.96689 1.77076
Si -4.98314 2.87087 4.36645
Si -0.949274 -10.2365 -2.97832
Si -3.29397 9.15603 -3.30481
Si 4.38153 -0.279861 1.28138
Si 6.15004 -6.63977 5.26417
Si -2.11653 -3.86666 6.34479
Si 4.1091 -8.16886 -3.60999
Si -4.1866 -4.57738 1.51803
Si 1.60384 7.41609 -6.82842
Si 3.63062 -8.57816 4.95988
Si 2.70222 2.18415 -3.98583
Si 5.82961 9.46931 -6.29897
Si 4.37901 6.46014 -6.1118
Si -2.62677 9.01428 -8.24964
Si -10.4071 -0.279961 -4.25147
Si 6.55963 -1.22149 3.43667
Si -0.647049 9.9756 0.125433
Si -8.00459 -8.47787 1.67295
Si -5.04104 -8.05562 -5.55122
Si -5.6063 -3.31993 -3.17604
Si 8.86766 -8.00808 -4.09525
Si -5.55981 2.58576 -5.12895
Si 1.86341 9.69219 1.93043
Si -6.72113 10.3429 -5.56825
Si 5.49063 3.23914 4.37396
Si -4.34705 2.89959 -2.29798
Si -4.05686 5.04857 0.058025
Si -8.33655 -6.8262 5.72039
Si 7.47975 -6.96904 -7.74023
Si 7.73507 0.751388 -4.97901
Si -5.70641 1.08369 -0.287193
Si 8.10804 2.24308 -7.85836
Si -10.0849 -8.12366 -1.91133
Si -8.71618 2.38157 -4.58556
Si 2.60278 -2.83564 -2.65525
Si -3.27286 0.0667471 1.35814
Si 4.7761 2.83432 1.56764
Si 9.42947 -9.19887 -6.98649
Si 6.04354 9.22461 -3.19634
O -8.94818 -3.77519 8.13437
O -6.23585 10.4939 -10.3869
O -5.78605 -7.94487 -9.57142
O 9.86465 -0.014888 -9.99274
O -8.7211 -8.8787 -1.82327
O -4.5643 1.37377 -5.64394
O -5.69372 -4.75081 0.923778
O 3.4797 3.60817 2.13353
O -4.81659 4.36594 4.68172
O 7.18426 -6.17726 -9.08788
O -0.582816 10.4985 -1.40178
O -6.51168 -2.47088 -2.21692
O -2.36899 -1.06062 0.719127
O 4.29132 2.35517 5.00028
O -8.53454 4.63078 4.53121
O -7.03981 9.90766 -4.04099
O -0.857171 1.36715 4.26702
O 7.37694 0.558131 6.54582
O 0.0904645 5.28674 -1.5552
O 4.17764 -4.59583 -0.167692
O 0.809765 0.972277 2.45204
O -9.68233 -2.0355 -9.61903
O 1.22878 2.94307 4.2646
O 6.75448 -4.20889 -0.540972
O -5.71632 -9.58356 4.89746
O 8.92623 -8.83537 -5.46627
O -8.27427 -4.95246 -0.291841
O -0.859414 -3.30759 0.190754
O 8.94271 7.96448 9.41475
O -2.73861 -6.86356 4.67201
O -6.94789 5.56978 -4.7047
O 2.49208 -2.23365 5.4238
O -9.09462 -2.43792 -7.29209
O -5.47026 5.48749 0.684528
O 2.43828 -9.85909 1.51544
O 0.796665 -3.86406 -8.45756
O -2.71668 -2.51667 6.89248
O 7.6166 -8.30345 -3.08041
O -8.05226 0.760007 2.45987
O -4.0244 -3.20275 -3.07751
O -9.69852 -0.635672 -5.6295
O -0.420815 -8.70245 -6.44324
O 10.1207 -5.35348 0.365984
O -4.28005 4.14848 -1.23171
O 10.1234 -4.02985 -8.27733
O -10.0794 -8.61814 -7.15964
O 9.37026 -10.3442 1.11252
O -10.075 -9.77866 7.15247
O 7.21538 5.00491 -0.880747
O -0.225824 0.904501 7.28948
O -7.1571 -2.69671 0.253871
O 7.66149 -3.02674 -8.14718
O -1.75701 -8.07193 -8.38029
O 1.38894 -8.14485 -0.183232
O -4.86547 9.38137 -3.14858
O -5.98284 -5.50431 -8.36437
O 4.40956 -2.92436 -6.57308
O -5.06017 0.101985 9.49162
O -8.56475 7.57308 -7.11177
O 1.43941 2.47255 -4.98061
O 0.567147 7.30105 7.16278
O -1.22267 -3.09927 -4.23165
O -8.12749 -7.47839 -6.32468
O 5.7862 -6.48932 0.527675
O -7.40638 4.70715 6.95952
O 5.81917 9.80713 -4.70759
O 0.620495 -3.5826 3.50957
O -7.63504 -4.99439 -6.48496
O 9.4886 3.91158 -5.36106
O -1.94127 -4.22293 -2.04315
O 9.04473 5.15281 5.77092
O 5.73078 0.335723 -2.14433
O 6.04973 -2.21654 -2.01552
O 9.57303 10.2213 -7.11536
O 6.87101 7.83663 -3.29155
O 8.84252 1.58298 1.65528
O -2.84773 8.20979 -2.07162
O -9.57516 7.84067 -1.13755
O -2.52132 -10.4292 -3.27599
O -4.24763 -0.767035 2.37495
O 7.48556 1.55028 -3.59924
O -6.72947 0.799326 7.58973
O -0.165887 -0.902869 -5.09984
O -10.0297 -5.81323 -5.7312
O 8.71302 1.70919 4.45754
O 9.03286 -4.03449 -5.87252
O -3.065 7.89459 -7.16501
O 4.3383 -0.22061 -6.80866
O 0.704761 9.608 0.814319
O -8.82312 3.88437 -3.89453
O 7.46182 9.6837 8.40114
O 8.77905 -6.48447 -4.47109
O -1.34452 -2.2757 2.68177
O -6.89359 -1.74364 8.368
O 5.24437 3.70517 0.357196
O -6.37864 6.37411 -7.05749
O -2.72463 1.02641 8.86543
O -2.27836 -0.177858 -6.43495
O 4.32122 6.28918 7.01504
O 1.57774 4.41409 0.50857
O -2.96344 5.01204 6.41298
O 2.60459 -8.52419 -3.21104
O -0.177144 -8.91212 -3.22424
O 0.840838 -6.79557 -2.26574
O -1.27348 8.08729 3.9222
O -0.0879683 -8.22927 2.99388
O -7.20022 -0.0793523 5.30219
O -9.36066 -8.06059 5.3293
O -3.03114 8.30198 -4.64633
O -0.0302279 -10.3457 -8.45636
O 3.0231 -9.2229 6.32866
O 4.65038 -7.27977 5.13985
O -8.6172 -1.0121 -1.13436
O 8.57647 4.25112 -2.83645
O -7.31212 7.00425 8.19285
O 7.12137 -10.3641 6.0972
O 9.43894 7.48831 -2.84079
O 6.12259 2.82879 -1.75236
O 0.168928 2.88008 -1.05146
O -0.572967 3.85635 -6.09538
O 5.21909 -1.94384 -8.68059
O -4.19483 -3.28367 2.49257
O 3.95956 -8.30667 0.135894
O 9.48778 3.00311 -7.76553
O 5.87024 -4.39249 1.89272
O -1.99455 5.94576 2.70881
O -4.88544 3.25374 -3.79153
O -6.54722 -7.40444 -2.07475
O 9.0669 8.56713 -0.528379
O -7.58585 -2.56742 6.07602
O 3.59761 -1.48557 -2.59194
O -9.97454 5.14394 -7.05852
O -5.17262 -7.5489 -7.10719
O -3.32446 4.27701 1.27927
O -7.08381 2.13442 -4.76447
O 5.8015 -8.85074 1.89078
O 0.252313 5.17089 -4.20197
O 1.33793 -3.33401 8.479
O 5.77793 2.77672 2.88587
O 4.62629 7.42893 4.83956
O 6.19652 -7.69036 -7.03944
O 9.42438 7.14859 4.09592
O 3.01862 -4.25364 4.00271
O -8.68082 9.55761 8.49254
O 3.81673 -7.7957 -7.78087
O 9.28748 5.41408 8.17635
O -8.66514 -6.21553 7.09831
O -9.59227 1.15901 -3.85522
O 0.196001 -1.13166 1.11986
O -4.47233 2.6928 9.83335
O -5.62935 5.02075 8.87744
O 1.9817 1.72156 -2.58716
O -9.39205 2.68916 -6.04556
O 7.84886 -8.1363 10.8044
O -9.20194 8.0039 3.73521
O -6.06287 -3.06529 -7.28522
O 9.95596 -7.09459 9.67225
O -0.133326 1.22233 -6.53486
O 3.19104 -9.16075 8.86372
O 3.36417 -5.23118 -7.29572
O -8.17446 -4.13092 -8.78816
O -2.08567 2.79171 7.19978
O -4.4046 6.18238 -5.61027
O -6.32692 -0.349174 -0.531448
O -8.05623 2.41552 5.7879
O -5.31329 6.05593 6.51905
O 6.17543 0.21458 -5.261
O 9.93075 10.248 9.21949
O 5.50243 -9.20391 10.4119
O -2.45569 -5.83986 -7.05995
O 0.572833 -6.07871 7.81002
O 9.07775 7.46915 6.73678
O -9.83381 -6.65711 -1.5076
O -7.28537 -8.6331 0.272898
O 4.63363 1.30256 1.15595
O -0.915423 -5.74846 -9.19224
O 6.96868 -2.84101 3.52415
O -0.634669 -4.01792 6.98534
O 2.17264 9.30908 -3.1023
O 5.15826 7.92583 -6.22257
O 9.07529 -0.05774 -4.62997
O 5.49805 -4.33925 8.40129
O -3.08886 4.56825 8.89904
O -5.6183 -10.2975 -8.38496
O -7.26205 -9.37122 2.80479
O -9.81096 5.80072 2.64308
O -7.30909 5.66143 2.44655
O 1.22367 0.690381 -0.263776
O 10.2833 0.775485 -0.303729
O -6.38355 -9.99712 -1.77683
O -9.85289 4.09619 6.76814
O 8.53058 8.57027 -5.03321
O -0.0925174 -1.34341 -7.58119
O 6.94606 10.2989 -2.43918
O 2.50709 -1.92514 -7.78484
O 3.71634 -2.34033 8.2577
O 7.83822 1.24632 -0.871025
O 8.35773 -3.12267 -2.39479
O -3.54565 6.66228 4.57196
O 8.0612 1.45871 -6.42398
O 6.26463 -3.872 -9.98015
O -9.58614 -7.56642 11.7407
O -8.40956 -5.72229 4.60938
O 8.42169 -5.74465 -7.00779
O 1.38787 8.24478 -5.42079
O 5.99149 6.88077 2.79393
O -1.26805 -9.96009 1.15057
O -3.00494 -4.9745 -4.53825
O -1.03546 2.05649 -4.35031
O 6.36295 -6.11661 6.74165
O -5.80383 7.78627 1.69944
O -7.06048 9.39633 4.24837
O 8.22208 5.97968 -4.58632
O 4.42378 -8.34926 -5.22572
O 9.41534 -9.41609 5.02457
O 2.8551 4.6803 5.36467
O -8.2126 -7.00668 2.29255
O 0.643479 6.09494 -6.61156
O 5.00427 -7.18372 8.68933
O 6.40759 -5.47064 4.21431
O 10.0423 -1.72834 -0.79393
O 6.03194 -4.62979 -2.93358
O -4.65687 -1.1329 -5.6246
O 7.8504 1.27774 -9.08173
O -0.0406546 -1.77063 5.12999
O 0.878623 9.11673 -10.5562
O -2.30327 -10.5057 -7.6459
O 0.415088 5.20816 5.46972
O -0.720333 0.785073 -2.27525
O 1.97565 5.1318 7.47823
O 1.15986 8.35293 -8.05116
O 4.89701 -4.95741 -5.20756
O 2.86078 8.44183 1.54592
O -5.49865 1.98133 5.63227
O -9.33988 10.2855 4.94806
O 4.42353 -3.69068 6.22298
O -0.710948 -5.9362 -0.342164
O 4.79498 5.03991 -1.99169
O -9.58498 -0.987999 1.27525
O 1.62203 9.919 7.70555
O -8.02778 -10.0439 -6.30844
O 6.01922 -0.76583 4.91367
O 3.01572 7.93774 -1.02201
O 10.1105 8.13297 1.74321
O 8.80772 2.89826 6.96465
O 1.88598 -4.47533 6.35381
O 6.40161 -8.77249 -0.614981
O -3.78755 -5.86106 2.28066
O 2.47186 1.48674 6.96205
O 4.34746 -6.59059 -3.2906
O 1.26198 -2.60093 -3.45517
O 5.15249 -10.137 -6.86911
O 7.13593 -7.96381 5.08335
O -7.64215 6.66176 0.0421835
O 1.75361 -5.64682 -0.170018
O 2.35008 5.4697 -2.79568
O -3.39957 8.12645 2.4855
O -1.07585 -6.52716 -5.13201
O 5.55095 -9.63909 7.92494
O 6.63805 2.75105 5.37788
O -7.95224 -6.08379 -4.09196
O -7.86519 -8.94397 -8.57059
O -4.91331 -0.931439 7.00975
O -8.18192 6.17408 -2.51822
O -0.865377 4.43656 0.815555
O -5.82268 -7.13539 -4.50842
O -2.95468 2.21963 -2.53698
O 3.62355 1.07019 -4.61979
O -1.55365 8.64231 -0.00370519
O 1.05927 9.50566 3.28036
O 2.79637 -0.326923 1.57205
O 6.98355 3.36976 -7.6309
O 0.58965 7.3512 -3.14909
O 5.74273 -4.9065 -7.69425
O 5.21314 5.10659 -6.58139
O 3.02963 6.71649 -6.8498
O -5.37438 1.80529 -1.65986
O -6.92178 -4.42161 8.07305
O 4.12108 3.46366 7.26967
O 4.52896 -6.00408 -9.53318
O 0.344527 -7.11462 5.36198
O 9.17109 3.28475 -0.446543
O -10.2438 -4.03779 -1.84117
O -3.76381 -1.66274 4.73419
O 7.31643 9.24693 -6.97306
O 5.94705 -1.74539 7.28265
O -5.93893 -4.90343 -2.86708
O 2.90277 -10.3965 -0.956518
O -3.90859 9.1229 -9.27554
O -4.12554 8.97564 0.186678
O -5.59201 -9.55756 -5.39547
O 7.09003 6.81442 5.16457
O 4.0841 6.15062 -4.4854
O 1.56409 -0.900796 7.43171
O 1.23657 -7.35544 -4.86484
O 4.91765 0.689775 6.86032
O 7.18196 -10.0661 3.6575
O -1.52802 3.38562 3.02219
O -1.66434 -3.72762 4.8153
O 9.84299 7.57399 -6.79614
O 3.52588 -4.05403 -3.2468
O -5.64742 3.85984 -6.12772
O -1.24101 8.54864 -8.91059
O -3.33074 6.42753 -0.183753
O -4.26822 0.918689 0.469001
O -6.13368 -2.88894 -4.68976
O 0.482721 -6.27385 -7.19559
O -3.62857 -6.47026 -9.13367
O -9.15095 -0.121547 -8.10949
O 3.53375 3.59363 -3.79076
O 0.830564 -2.98016 -6.0415
O 4.64271 -9.66028 4.1551
O 1.3598 0.244435 4.82974
O -10.3174 -5.70604 2.82353
O -4.97088 -7.42769 3.92998
O -7.2125 -1.10321 -6.3248
O 4.60539 -0.991486 -0.157925
O 8.51887 -8.19759 -7.78402
O -0.298576 9.67455 -3.92019
O -2.71555 -8.31792 2.70998
O 5.57006 4.86853 4.46685
O -6.67011 1.92384 0.700685
O 6.93506 3.89644 -5.1118
O 1.34894 -5.99762 3.01254
O 2.32101 -3.26707 -1.11064
O -8.39851 8.18959 6.23934
O -9.40004 6.27898 -4.98712
O -9.45635 -9.05098 1.29655
O -8.71331 -6.18504 9.66984
O 7.30343 -6.2151 9.25587
O -3.08377 -4.40419 0.364231
O -8.53821 -1.44966 3.66897
O -1.59077 -7.35803 7.00345
O -4.2917 -7.69115 6.40708
O -5.15548 10.0849 2.52997
O 5.40707 -0.861424 2.35069
O 2.34275 -8.18816 4.07497
O 2.28739 -3.91008 1.51605
O 7.47184 -1.19699 -9.88677
O 5.17894 7.72331 0.551504
O 7.77569 10.3192 10.7512
O 3.29562 6.07757 1.03957
O -1.76341 6.21121 -5.45562
O -3.01797 -5.1976 6.58139
O 0.883039 -8.56507 7.44076
O -2.54223 0.126622 6.47735
O 10.5019 -1.58221 -3.22765
O 7.91184 -0.362568 3.16736
O -7.00907 8.39237 -1.81994
O -8.40143 3.38885 2.25365
O -2.32586 1.10027 2.10135
O -6.8323 -7.39343 5.68033
O -3.49705 -7.50176 -5.35476
O 5.14215 2.37195 -6.16511
O 5.18878 -8.90181 -2.76718
O -1.18017 -10.3826 3.64297
O 4.6943 9.11972 -2.29839
O 0.282614 9.33278 5.6351
O 1.67631 5.22697 3.04519
O -8.01469 -4.47762 2.20355
O -9.90307 7.29076 8.18592
O 10.4804 0.260625 3.20103
O 9.38842 -7.54545 1.47626
O -6.49235 8.27693 -8.83246
O -6.15538 2.56618 3.29353
O 9.91015 -8.65796 -0.786374
O -9.08802 -8.87287 9.41323
O -2.89233 0.245217 -4.03691
O 5.4779 9.554 2.31306
O -3.53568 2.25989 3.93645
O 10.2764 -8.23219 -3.39566
O 9.63191 5.98534 -0.905113
O 8.23735 -5.0971 2.41756
O 1.94437 -6.17842 -9.22302
O -6.05884 -2.03725 3.88946
O -0.702599 4.99769 7.71619
O 7.59716 8.60615 1.59353
O -6.46685 8.8859 -6.33575
O 2.72833 8.18114 6.38581
O 5.24144 8.88181 7.01289
