588
Atoms. Timestep: 1790001
Si -2.10567 8.71515 -10.6265
O -2.17021 8.84554 -12.3194
H -2.75989 8.20649 -12.702
Si 7.87094 7.94013 8.89268
O 8.35855 7.92467 10.5501
H 8.43449 8.76857 10.9797
Si -8.42873 3.12834 -9.92345
O -8.75037 3.08457 -11.6305
H -8.05585 2.72353 -12.1688
Si 9.48149 3.51871 -9.068
O 8.97354 3.64161 -10.7235
H 9.33495 3.02339 -11.3478
Si -9.00566 4.86887 10.2548
O -8.83207 5.25935 11.9001
H -8.76236 4.50369 12.4716
Si -3.65155 5.92331 -10.7314
O -3.77801 5.8175 -12.4148
H -4.64661 5.84358 -12.7986
Si -6.82635 6.79235 9.10743
O -5.72427 6.91928 10.4267
H -6.14055 7.27522 11.2029
Si 9.11614 5.20078 8.97724
O 7.79535 5.26541 10.0899
H 7.75305 4.53527 10.6962
Si -2.65008 0.261038 5.83032
Si 9.54744 6.07242 -7.13406
Si 5.75496 5.53612 5.53835
Si -0.123851 -1.26415 5.20659
Si -8.1157 4.63889 -0.337498
Si 0.037157 1.45496 -9.04806
Si 9.48992 5.09145 1.62618
Si -0.806497 -3.01612 2.85165
Si 0.326334 6.73468 -5.05084
Si 5.85273 -3.79654 8.63281
Si 0.706531 -8.33605 2.56122
Si -9.0635 6.44218 2.11984
Si -7.05868 -7.84319 1.68291
Si 2.75545 -3.46007 7.70642
Si 2.14882 7.50682 1.80919
Si -3.65619 -9.19823 -4.94381
Si -9.78301 10.205 3.1936
Si -9.67452 -7.67053 -7.95239
Si -6.40821 5.51651 -8.98576
Si -9.39913 4.13785 6.17666
Si 7.02775 2.74678 -0.64624
Si -5.00071 1.431 -2.34013
Si 6.42562 -10.3973 4.23543
Si -5.04545 4.26951 -6.38429
Si -3.93304 -1.22611 -5.16475
Si -0.742819 2.52777 1.9494
Si -8.51653 -10.4895 -7.1781
Si -10.1603 -2.03852 3.41531
Si 2.48238 6.71863 -7.27729
Si 8.77406 -8.55464 1.29042
Si -5.47511 -5.30036 -4.99514
Si -6.60554 -5.75114 -2.40043
Si -6.40577 -3.30048 -0.33737
Si 2.63645 3.79455 -6.77732
Si -10.0189 0.042418 -6.48026
Si 2.16262 2.59772 3.26587
Si 1.26743 -8.00835 -5.21404
Si 9.24558 -0.69293 6.2413
Si -9.43739 -6.82864 -2.99673
Si 10.0974 -8.06334 4.17198
Si -1.52424 9.54092 -1.93528
Si -0.490781 3.27138 -6.7907
Si -10.0267 -3.16704 -6.52172
Si 2.45995 -0.439421 3.48784
Si -8.27741 -0.260048 -1.31906
Si 6.89523 9.76724 1.23059
Si -5.1441 -7.77207 7.51611
Si 1.28041 -5.2856 -3.69477
Si -2.26582 4.77012 -5.13483
Si 3.28186 3.56369 6.03533
Si -1.25897 -5.12409 7.66353
Si 3.7135 2.66458 -4.01985
Si 9.70817 10.4439 8.12621
Si 9.56997 2.18602 4.87746
Si 6.86909 -1.45911 -0.274368
Si -5.93764 7.68589 -2.8034
Si 3.82408 10.0001 5.96842
Si 6.88758 -6.10199 1.22758
Si 3.28986 -2.76236 -3.99514
Si -7.35624 5.61788 -4.81724
Si -5.04895 5.59081 -0.781741
Si 5.91895 -7.19856 4.13733
Si 0.845503 5.64138 -2.18745
Si 4.6191 8.78338 -5.86866
Si 6.26701 1.08303 -4.99519
Si -1.46356 -7.98485 -6.93325
Si -4.02354 -1.21837 -0.578308
Si -9.96433 9.05888 0.492136
Si 8.13602 1.1168 -7.39015
Si -3.69679 9.24508 5.93693
Si 3.37311 -5.36782 3.9521
Si -3.30655 -4.48491 3.92791
Si 1.10738 -9.90625 -2.78488
Si -8.51736 -4.94168 -8.63027
Si 5.41007 1.41555 6.50038
Si -6.94495 -2.48924 -8.79494
Si -0.903143 10.4307 7.0922
Si 7.6114 3.45018 6.95636
Si -8.77771 8.89747 8.08784
Si -4.0264 9.48843 2.77078
Si 4.34997 -6.07059 -0.741815
Si 1.94435 0.0906013 -4.9312
Si -2.14489 -0.346209 8.96548
Si 6.51137 4.64861 2.78389
Si 3.72744 4.67345 1.36693
Si -9.75422 4.39208 -3.02195
Si -9.32497 -6.10792 5.92974
Si 9.17773 9.34385 5.29785
Si 5.49634 -0.539558 -7.46386
Si -0.051389 7.16157 -9.11302
Si -4.68995 1.19859 -7.10854
Si -7.47881 0.491352 -8.51311
Si 8.49941 7.47456 -0.2293
Si -5.13672 -5.34751 1.65812
Si 7.41122 -5.58658 6.4282
Si -7.17327 5.36155 4.28388
Si 2.62863 -0.702087 0.358555
Si 8.49919 -0.457398 2.12957
Si -5.0334 6.36862 6.49549
Si 4.12518 -2.54119 5.00378
Si 6.27071 -1.36535 6.76343
Si 7.75882 8.32993 -6.02592
Si -0.155441 -5.15128 -0.865921
Si -3.39896 -8.9239 -1.94905
Si 6.77282 5.58491 -2.08488
Si 1.38642 -5.87487 6.29252
Si 4.97179 1.03398 0.442492
Si 4.03461 -9.10778 -6.05111
Si -9.7661 -9.84782 -4.20636
Si -0.156649 7.49541 7.2072
Si -0.845663 -0.907036 -5.57384
Si -8.48714 7.2878 -7.31746
Si -6.29409 -8.67274 -1.09749
Si 5.79564 -9.57975 -3.4648
Si 6.00459 -6.67838 -3.24797
Si -5.52691 0.859316 4.88808
Si 3.95109 9.56847 0.0153497
Si -1.55597 8.21657 -6.55646
Si -10.0759 1.22288 -3.42071
Si -1.47253 -2.52907 -2.08649
Si -3.88059 -2.65898 -8.13897
Si -5.52432 1.74 7.73316
Si -2.90079 -5.21544 -6.98378
Si 6.16848 1.43199 3.36841
Si 8.87427 -5.24985 -2.8733
Si 8.7659 5.9303 -4.24191
Si -9.82198 -7.21803 0.125238
Si 10.0386 6.9258 6.93412
Si 5.4625 -6.45669 -6.5765
Si 5.10749 7.71442 7.5287
Si -2.14791 -0.301872 -8.42965
Si -1.71559 -0.366643 1.24952
Si -2.64922 -6.80284 0.224781
Si -7.47974 -2.5743 8.18026
Si -2.69409 4.44226 3.59061
Si -7.96144 -1.14078 5.52561
Si -6.27878 -0.94257 -3.50811
Si 7.98052 0.355086 -2.50897
Si -6.6729 -5.33113 7.32757
Si -6.88973 -10.2417 3.5593
Si 8.29382 -4.11124 -5.35137
Si -2.23147 5.14442 6.6103
Si 8.30095 -9.81904 -5.29491
Si -9.51338 -0.364157 8.07345
Si -2.11106 -7.94462 7.98028
Si 8.44003 -7.01894 -6.72326
Si -6.38391 -10.3977 6.69685
Si -3.29589 6.68175 1.59176
Si -3.13022 -7.3643 5.16241
Si 4.28616 -3.03937 -1.05628
Si -3.33664 8.7186 -4.20207
Si -4.82245 -1.26735 8.49411
Si -7.09373 -6.79781 -6.83087
Si -0.583046 7.36227 0.0961729
Si -9.41448 -2.42999 0.371215
Si 3.71853 9.28778 -2.87315
Si 2.52569 6.04445 7.34715
Si -5.59798 -9.4352 -7.27468
Si 0.0589043 -0.161278 -1.36941
Si 1.79576 7.67468 4.98973
Si -2.23762 -8.93464 2.54201
Si 2.37217 -8.64293 -0.206352
Si -4.02099 -3.80678 6.69779
Si -1.15063 4.33374 -9.58158
Si 9.42418 -4.66068 0.243165
Si 9.78715 -3.77397 5.38392
Si -8.15036 9.88856 -1.91993
Si 9.09229 2.28091 1.72478
Si -8.422 2.39026 8.7888
Si -0.312512 2.8708 -1.2051
Si -5.51896 3.02981 2.78485
Si -6.78131 2.08302 0.0550426
Si 5.27904 -3.48202 -6.31351
Si -2.70871 -10.3824 -8.35842
Si 1.51834 -8.94069 5.63452
Si -2.54789 2.4346 7.80107
Si -7.3842 -2.82294 -5.57093
Si 3.78916 4.81335 -1.71176
Si 2.83665 0.871071 -7.92241
Si 9.41579 -7.753 7.1869
Si 1.0672 -5.38646 1.94453
Si 0.0560452 -2.31786 8.31767
Si -3.12842 3.72192 -2.38341
Si -1.01116 -3.67436 -4.96787
O 10.2752 -3.5028 3.82357
O 3.26366 3.55412 -5.27317
O -1.16026 0.447673 -9.42536
O 9.15613 -8.12593 2.82516
O -4.40926 5.93428 0.709242
O -4.08501 7.69917 6.24447
O -8.77818 -1.71155 8.60811
O 6.46515 3.03454 3.22422
O 2.29627 0.233915 -6.55824
O 10.1993 -6.05558 -3.30864
O 0.813357 -8.98192 -4.04524
O -0.243663 2.96532 -9.75356
O -5.20657 6.95461 -1.59936
O 6.9292 -6.68295 -7.25172
O -0.313367 1.82936 -7.51488
O -6.59823 5.10758 -0.622002
O -4.11785 4.5783 -1.49435
O -2.04624 4.73023 5.036
O -10.1051 -7.04552 7.0143
O 8.65675 2.35439 -8.35821
O 6.39811 9.98815 2.77955
O 7.69031 2.56777 0.826301
O 9.22948 5.43166 -5.68683
O 1.64884 -2.61423 8.55094
O 2.64736 1.39471 -4.13553
O 2.94965 3.48634 2.20733
O -3.70141 -8.04902 8.27545
O 2.6639 4.46898 7.21536
O 3.27199 -7.33885 -0.42802
O -6.42998 -6.47012 -5.51941
O -5.30234 -2.09995 -0.421204
O -2.37156 -7.74419 1.48143
O -9.39976 7.87158 1.47669
O -0.345543 9.00993 7.73355
O 5.38049 -0.0421059 7.11565
O 8.45409 -4.6114 5.67648
O 4.33765 -6.64528 4.10735
O -9.03576 -10.2235 -5.62576
O -3.88777 8.19228 1.90362
O -6.82724 2.09065 8.56188
O 1.11632 6.62544 7.87175
O -0.653322 -9.19711 2.59365
O 6.28179 5.61293 4.04402
O -7.06568 8.70828 -2.22723
O 2.41172 10.1019 -3.05202
O 4.234 -3.72549 8.29846
O 3.99674 2.23192 6.63399
O -2.47682 -8.56596 -5.84219
O -0.10106 6.43243 -1.07762
O 9.68088 -9.87277 -4.41651
O 8.53151 -4.01733 -3.79901
O -1.45511 1.08113 1.88847
O 6.6186 -6.4021 5.35989
O -2.64012 9.91465 -9.78615
O -8.83299 -3.46985 -5.46653
O 8.26613 -8.37495 -5.89259
O -2.87957 -5.88762 4.6042
O -9.9542 6.59071 -7.31564
O -10.0823 -4.67465 6.06305
O -4.63957 2.76988 -6.77163
O 9.99958 5.46456 -3.27406
O -1.66483 3.68539 2.56419
O -1.8515 -9.04136 -8.14026
O 9.58195 -1.11084 3.15642
O -3.98132 -2.13501 -6.55365
O -4.9107 9.99948 6.7228
O -8.70818 8.90381 -7.44774
O 9.48069 -3.4129 -6.13758
O 4.87851 -6.18815 -2.26483
O -10.0493 -9.36835 3.9026
O -3.66549 -3.51945 5.13459
O 3.02774 8.73313 1.11717
O -5.77634 4.89573 -7.64761
O 2.94667 2.52596 -7.66624
O -4.17345 2.52206 8.04372
O -3.27562 -0.746962 0.7921
O 6.20001 -8.23656 -2.75796
O 2.58159 -1.35471 -4.32702
O 2.54229 6.51996 5.79337
O -9.73581 7.83744 7.39522
O -1.92985 -4.27691 -6.14579
O 3.72011 8.68556 -1.3706
O 0.262027 -9.91797 6.12982
O 0.99932 3.79505 -6.64837
O -4.51895 -4.85787 3.00581
O -3.47751 -4.20555 -8.12212
O 5.47423 0.0349928 -5.96033
O 4.09885 -2.69897 -2.62064
O -7.1427 -2.50948 -7.14878
O 8.01309 4.90278 2.33482
O -5.96724 -4.2112 0.952535
O -10.1198 2.79252 -3.25119
O 7.81646 10.0398 4.94247
O -0.599753 8.30494 -10.12
O -7.83389 1.75745 -9.44172
O -7.80489 6.70165 -5.93286
O -2.03315 1.27213 8.88193
O -9.40887 -8.30817 -3.72204
O -7.3921 -2.25646 6.57165
O 9.38133 -9.01687 8.0597
O 9.15988 7.76968 5.9035
O -10.2059 10.1684 1.67806
O 8.31414 7.45799 -4.61631
O -1.86878 3.17819 -1.55603
O -2.79959 -1.70434 -8.7497
O -5.79782 2.65927 1.22142
O -8.97452 0.690724 -2.42239
O 9.30176 -8.20981 5.60456
O -9.92098 3.30183 -9.21524
O -8.87658 9.49196 -0.573213
O 5.23165 1.15527 2.07959
O -5.96065 -6.52792 8.02947
O -1.96098 6.81952 0.721675
O 6.98315 -10.1017 -4.3841
O 0.277715 -4.00175 2.3376
O -1.04679 8.81792 -0.586902
O -0.0409407 -4.86444 -4.54903
O -5.4427 -4.55766 6.65144
O -5.2351 0.159337 7.93866
O -7.36294 -4.17225 8.22061
O -0.710582 -3.7253 8.28731
O -1.3511 -0.205113 5.02893
O -5.33716 -2.46023 -8.83975
O -5.15776 5.87506 -10.0113
O 2.22317 -4.02663 -3.71842
O -9.15925 -6.41637 -8.94613
O -6.4056 -7.16258 -1.60167
O -5.54074 10.0837 2.94725
O 9.35196 4.89198 -8.18352
O 0.908121 -5.3207 0.340834
O -3.91824 -5.94063 0.694943
O 6.77672 -3.71941 -5.74065
O -2.15379 -6.55947 -7.29934
O 2.47369 5.71261 -1.93901
O -4.98169 -9.33458 -1.61379
O 1.5607 0.954817 -9.00434
O 2.20896 -0.841482 1.92958
O -0.63729 -3.60704 -1.21268
O 9.94279 -0.459032 7.71175
O -10.4357 5.74746 2.58935
O 1.45353 -7.46309 6.3395
O 1.46283 7.09747 -8.49689
O 0.646992 2.46529 2.75184
O -6.1303 4.64554 -5.27633
O -0.27758 8.18085 -5.53929
O -0.51742 -2.55835 4.33426
O 6.47323 -6.56861 2.69238
O 7.64469 8.32 0.838658
O -2.28331 9.85793 6.48331
O -6.57675 4.1788 3.3016
O -7.19745 -1.44036 -4.76384
O 7.68438 -0.789401 6.27869
O -7.2616 -5.41985 -7.66551
O 8.04959 -4.9277 1.12261
O -9.47582 -2.02659 1.92274
O 3.4734 0.666075 0.2252
O -9.10427 4.69124 -1.56815
O 2.95623 -9.63683 6.00551
O -6.04917 0.785216 -7.92304
O 5.38632 -2.17822 -7.28991
O 2.4322 -8.80163 -5.94016
O -9.22923 1.01806 8.78355
O 9.043 -4.96263 -1.33624
O 0.38868 -6.72037 2.54402
O -7.98704 -3.01937 -0.0460245
O 9.67793 0.672987 5.40713
O 5.52411 2.22762 -0.368192
O -8.77202 -0.264976 6.65702
O -2.10879 -7.77957 6.34187
O -1.174 -0.716042 -7.15972
O -2.77758 7.90108 -5.50103
O 5.03984 10.2994 -2.64231
O 5.23151 4.88555 1.78325
O -9.95463 -1.57372 -6.54336
O -2.07638 9.54659 -7.32664
O -9.92534 -6.79243 4.57132
O 1.45829 -9.00931 -1.49782
O -2.87816 -2.14196 -1.35901
O -7.18693 -8.78326 2.97849
O 7.40278 1.62063 -6.01754
O -1.42065 -5.93676 -0.309562
O 2.99709 6.12267 1.60961
O -5.70148 1.70317 3.64519
O 4.28407 0.218598 -8.21081
O -0.976466 7.34594 -7.84809
O 3.08149 5.21874 -7.3544
O 10.489 -5.85039 0.59311
O -6.16718 -6.55283 1.89526
O -9.24557 -9.22442 -8.03177
O -8.61653 -7.31082 -6.73569
O -8.62941 0.398557 -7.3927
O -0.160439 -5.44434 6.56114
O -7.68856 -3.77335 -9.41748
O -3.51091 -0.901243 9.47214
O -2.27284 8.54759 -2.97863
O 7.00036 -0.00726248 -7.87494
O -8.24567 9.92551 3.30859
O 0.581685 6.30304 -3.57875
O -7.80688 8.06568 8.97809
O 9.59419 0.520364 -7.00073
O 7.0392 0.362194 -3.78774
O -1.00887 -1.55794 2.09856
O 3.82639 -4.52801 -0.729729
O 5.72398 1.3524 4.87372
O -5.4053 -5.63423 -3.46776
O -6.34238 -3.95323 -5.11468
O 1.184 -0.693793 4.40638
O -2.60431 4.7331 -10.2634
O -2.77305 -8.4141 3.98549
O -10.4721 5.43095 6.5579
O 9.34663 2.28149 3.30161
O 4.10439 8.6861 -4.28303
O 2.73917 1.10142 3.50158
O -2.54845 -0.46619 7.29481
O 4.13328 -3.96589 4.30874
O -0.304528 2.8847 0.425704
O 8.61676 -5.70251 -5.78426
O 0.673562 -5.53816 -2.1829
O -9.49551 -7.04145 -1.38879
O -3.30529 0.651579 -7.8982
O 6.37618 7.74117 8.45485
O -9.19031 10.1479 -3.0862
O 10.1769 9.28993 4.02545
O -9.94126 0.724308 -4.99876
O 10.3505 -3.38333 0.206238
O 5.61525 6.94373 6.21502
O -10.1897 3.05683 5.31377
O -3.97228 2.45657 -2.88521
O -6.65759 -10.0262 5.16588
O 9.84604 3.64741 1.21857
O -2.42359 -10.1632 -1.75093
O -0.60916 -1.23086 -2.40874
O -6.1884 -8.98173 7.43712
O 3.84138 6.77584 7.9775
O -4.39428 -2.45077 7.53316
O 4.18155 -3.23371 -5.17416
O 7.92583 -9.93238 1.07062
O -8.05805 6.34547 3.37456
O 4.53735 4.50792 5.5218
O 5.59337 -6.51225 -4.90281
O 0.0417377 -1.68479 6.7521
O -1.77333 -3.2471 -3.55404
O 5.16879 10.2423 5.13694
O -8.6034 5.56422 0.855335
O -8.49377 -7.46357 1.04678
O -6.95545 -10.2533 -7.28476
O 10.1363 -8.3648 0.362489
O 9.80799 -7.28265 -7.50697
O -7.48696 -9.62243 -1.62593
O -6.30178 -8.66334 0.477669
O -8.03617 3.09406 0.127513
O 6.7815 4.79545 6.54555
O -2.38285 -0.948536 -4.92292
O 2.13636 -4.90491 7.29844
O -6.21819 -7.9446 -7.56508
O -0.0208945 -7.87579 -6.22606
O 6.17244 8.27392 -6.0037
O -1.91507 3.86494 7.5914
O 7.66301 -0.979752 -1.59431
O 6.28734 -8.77917 4.20629
O 3.50299 -2.02692 0.00330899
O -0.945922 -0.307412 -0.111089
O -8.06969 -5.89611 -3.0443
O -7.43036 -0.982037 -9.18875
O 9.76182 8.52595 -0.380993
O 7.18222 4.25864 -1.11973
O 0.385444 7.73325 5.70596
O -3.20429 10.305 -4.58814
O -0.146941 10.0708 -2.50311
O 4.95866 -4.96955 -6.94432
O 7.76998 -1.4721 1.05932
O -10.4845 5.18365 9.6705
O 7.63222 1.65989 -1.64437
O 2.70256 8.93276 5.3765
O 3.11974 -2.78692 6.27785
O -3.572 -8.47899 -3.53479
O 5.55456 -2.11169 5.5396
O 8.26365 9.83814 -6.16908
O -4.38177 0.144089 -1.43407
O 1.45183 -0.614792 -0.756091
O -2.85732 -4.71859 7.27642
O -1.46694 6.51528 7.02071
O -4.83512 8.32732 -3.74193
O -0.305669 -2.34614 -5.44782
O -8.92493 3.41273 7.54115
O -1.47971 -6.50644 8.43191
O -6.74398 6.55274 -3.58182
O 7.53835 6.87442 -1.37306
O 6.28003 -4.29151 10.0064
O -0.845785 -1.24415 9.08418
O -4.02307 0.231311 5.07226
O -8.60273 4.7926 -4.14026
O -7.41142 0.57803 -0.223044
O 4.66679 -7.83012 -6.81678
O -6.2614 -1.9161 9.01079
O -6.02954 6.55139 7.72619
O -0.384316 5.73045 -9.77321
O 2.55105 -5.32614 2.53926
O 1.81224 7.61179 3.36371
O 7.4729 5.32502 -3.47781
O 7.43272 -6.07138 -3.05268
O -3.84821 5.35509 6.81133
O 8.9786 6.72262 8.25326
O -3.02284 -7.70663 -1.00337
O -7.67878 9.68388 7.10364
O 8.34465 2.86013 5.66722
O 1.36336 -8.71817 3.99473
O 5.15907 5.5701 -2.07911
O 3.60648 4.49223 -0.163698
O -8.96865 -1.63227 4.41828
O -6.76789 -0.238907 4.91496
O -4.07323 3.52398 3.41107
O -9.90122 9.95668 8.70039
O -4.12059 -5.38082 -5.89694
O 6.46477 -4.74368 7.42991
O -6.3727 -4.35946 -1.54925
O -0.98403 5.77541 -5.44516
O -6.01804 2.1662 -1.3463
O -7.45968 6.67861 -8.48667
O -4.56572 -7.47647 5.95225
O 1.62175 -8.51211 1.2481
O -2.17321 -3.79114 2.99966
O -1.35663 -9.35616 8.13792
O 6.27653 -2.28082 8.07433
O 5.50724 -6.05493 0.277579
O 8.2925 -6.65567 7.21915
O -2.39141 1.83938 6.34676
O 2.10674 -5.53518 4.94358
O 7.34502 0.288658 3.07191
O -8.14792 4.68726 5.38815
O 9.50869 0.512113 -2.90645
O -1.52425 3.39613 -5.52701
O 9.87939 10.1416 6.53156
O 1.5452 6.50279 -5.98109
O -5.0278 -9.20857 -5.73491
O -3.03419 7.38708 -10.415
O 4.40786 10.3527 -6.39353
O 1.75082 -6.63805 -4.4664
O 2.38709 3.25899 4.75065
O -5.93204 0.642141 -3.41239
O 3.61836 -1.35322 4.07331
O -4.91132 -1.62444 -3.93228
O 8.65437 3.95447 8.1453
O 7.76208 -7.44854 0.76339
O -3.64136 4.91136 -5.89987
O 3.30674 -9.99095 -0.203046
O 5.52721 9.82806 0.431187
O -3.12013 -10.2441 2.21358
O -8.72753 3.29635 10.0842
O 6.54283 2.25957 7.22433
O -3.67854 9.36057 4.31986
O 5.22028 2.1397 -4.34727
O 0.486307 4.11274 -1.92998
O 8.59152 9.34574 8.54735
O -9.37475 -1.09587 -0.522754
O -2.99911 5.85606 2.95883
O -7.37872 4.31587 -9.64718
O 9.64099 -2.25261 5.85762
O -4.5278 0.167715 -5.82164
O 4.44001 9.15277 7.19582
O -7.78527 -5.93635 6.23542
O 9.24867 0.758354 1.35662
O -1.27952 4.14871 -7.95181
O -4.29004 -9.9336 -7.99767
O 5.87151 -2.69024 -0.681381
O -9.65647 -4.09889 -7.75877
O 9.13802 6.10204 0.421833
O 0.760762 7.35911 1.05352
O -2.60164 4.64015 -3.54838
O 0.0824527 1.39115 -1.72584
O 3.72759 3.52478 -2.65339
O -7.24014 -1.20285 -2.23241
O 4.6217 -9.09303 -4.58049
O 3.56251 7.89749 -6.80746
O -7.81617 5.57139 9.3571
O -5.96042 6.06042 5.18004
O 0.329737 0.0958391 -4.97642
O 8.56484 7.40169 -7.07964
O -5.75264 1.86587 6.12869
O 5.87201 -0.246323 0.0130827
