585
Atoms. Timestep: 1790001
Si 7.72112 9.9142 8.24569
O 8.4849 10.2246 9.70048
H 8.45034 9.53147 10.3492
Si -7.79857 -0.231912 10.5693
O -8.47723 0.64423 11.8776
H -9.41572 0.77715 11.8138
Si 7.58833 -8.15869 7.41056
O 6.82591 -7.31988 8.70557
H 7.41273 -6.85329 9.28904
Si -4.65606 -0.581673 10.2866
O -3.6751 -1.20994 11.499
H -3.6036 -0.606582 12.2293
Si -1.53149 -0.213075 -8.3099
O -0.791711 -0.199603 -9.8465
H 0.111604 0.0920077 -9.88505
Si -4.65789 0.262102 -9.00237
O -4.47917 0.208941 -10.697
H -3.66091 -0.184399 -10.9767
Si -2.74949 -7.76088 -9.45125
Si -2.10858 -10.1325 -9.3386
Si -5.47931 2.05594 -3.5305
Si 6.1725 -10.4461 -8.19134
Si -1.44694 3.33974 2.51037
Si -5.36136 9.01613 -0.580615
Si 3.79712 8.95206 -5.19117
Si 9.33625 0.196441 1.36065
Si -4.49559 2.05606 8.81961
Si 2.69334 2.47279 -1.34032
Si 0.597305 -5.83743 4.17858
Si -5.88544 -4.60701 -6.25604
Si -4.42785 1.16666 4.26218
Si 6.44252 -6.21314 5.24175
Si -2.26582 2.01512 -0.202836
Si -0.657288 -6.05658 -8.26741
Si -6.1867 6.17455 -5.05697
Si 0.20432 -7.18564 -2.38188
Si 9.45138 6.30658 4.35881
Si 4.12647 -8.16991 1.53626
Si 7.50174 5.62725 0.195895
Si -2.67386 -8.60571 3.37447
Si -0.60233 -3.24762 -7.39483
Si -8.16433 -9.2522 7.34877
Si -4.88867 -7.55406 -4.00808
Si 4.07536 -5.04661 6.58184
Si -5.21035 3.16448 -7.68399
Si 2.86832 7.36804 -1.62939
Si -1.7316 -9.72039 -1.58589
Si -4.14112 4.7813 1.94273
Si -1.50134 -4.30534 -4.47773
Si 8.18999 6.91625 -2.57956
Si -3.59824 -5.51611 7.37315
Si -1.81793 -0.740052 -1.69586
Si 9.60577 -0.465896 -5.41411
Si 7.6539 7.97462 2.40176
Si -1.83843 -2.7831 0.375037
Si -8.48356 5.4211 4.11162
Si 10.4801 -5.22791 2.94189
Si 5.97621 1.51476 -4.66982
Si -3.89363 -9.73569 0.748195
Si -8.54945 -1.38362 -5.519
Si -1.32181 8.42198 3.19389
Si 7.02209 -1.67061 5.48171
Si -6.96593 3.90315 -1.53749
Si -7.8351 -4.28609 4.04579
Si -9.57216 -4.07934 -4.46279
Si -6.69036 -7.07811 3.70595
Si 2.62146 -6.55952 -0.506319
Si -2.83214 -1.5832 5.07062
Si -7.17021 8.33809 4.67998
Si 2.61251 8.3371 7.6307
Si -2.56393 4.99701 -0.836671
Si 6.66112 -1.18971 -6.16943
Si -3.06679 8.9713 -5.36776
Si -4.39991 9.1004 -8.30876
Si 9.64274 3.39516 1.25301
Si 1.84902 1.36935 1.26284
Si 3.18629 -10.2518 3.79652
Si 2.2404 -7.11977 -4.64339
Si 6.36806 -3.36859 -3.87063
Si -7.46556 1.71586 8.0275
Si 2.44837 -2.51786 -7.16148
Si 8.94753 -5.39002 -6.06776
Si -0.453184 6.01702 1.09242
Si -4.96148 2.039 1.27353
Si -5.4642 -6.67496 -8.37729
Si -7.12762 -0.102117 4.25529
Si 0.0658344 7.57544 6.09509
Si 8.94739 2.43478 -4.38162
Si 7.95811 5.18512 -5.31991
Si -6.24062 -0.374437 -0.253853
Si 8.82489 3.40299 4.30876
Si -6.55116 -2.11162 -7.76855
Si -0.85726 -10.0979 8.17421
Si -4.48961 -0.757998 -2.63507
Si -9.29112 2.93185 -3.39307
Si 0.824948 -10.3866 -8.30216
Si -9.62023 -1.90883 8.72629
Si 0.908461 9.78046 -1.11765
Si 5.1981 -3.31623 -8.02871
Si -8.98676 7.69689 -5.73184
Si -8.42429 -0.0944495 -2.62667
Si 6.52041 -6.90427 -4.69406
Si -0.0827941 -7.68398 1.85056
Si 6.86394 4.86113 7.82392
Si 5.10803 -2.91591 3.25434
Si 8.0124 -5.58195 -0.185146
Si -8.71276 -7.07601 -0.943242
Si -5.45181 -7.8514 6.5055
Si -9.85374 -7.78064 3.99504
Si -4.51424 6.12658 -7.84754
Si -4.35295 -2.58556 7.73764
Si 0.635629 1.92096 4.10584
Si -4.70463 4.91806 10.0544
Si 6.17979 -5.75033 2.29064
Si -4.03236 6.18775 6.69646
Si 6.27922 1.27661 4.61758
Si -7.86642 -6.70841 -3.98078
Si -6.61952 -2.24832 2.07872
Si 3.23158 6.43556 -6.88713
Si 9.21672 -2.60876 -3.06591
Si 9.04771 9.91451 -8.45081
Si 9.69591 -4.28194 7.79119
Si 8.27535 10.343 0.588417
Si -10.1584 -0.32516 4.06367
Si 6.81403 -4.02905 7.18265
Si -0.491442 -9.98742 -5.40391
Si -0.101343 8.321 8.99398
Si -7.83654 10.3046 -5.24915
Si -8.03284 8.83854 7.72238
Si -7.26816 -2.37253 6.48052
Si 5.52477 8.77981 -2.79689
Si -3.17723 3.2476 -5.15375
Si -8.04945 7.5016 -0.294515
Si 5.26928 8.40069 4.48687
Si 0.76195 4.77671 -5.96902
Si -10.2313 -4.42902 -0.0549645
Si 9.67747 3.47495 7.19342
Si -4.3971 -5.92653 -1.37009
Si 2.18656 -3.41849 -0.453616
Si -10.4541 -1.56155 -0.845625
Si -8.33313 4.5766 1.0857
Si -2.66603 -5.7547 4.35425
Si -4.55096 -3.70647 -3.60867
Si 4.86413 3.91435 0.244927
Si -2.16666 6.0377 -5.92239
Si -9.67524 -9.09763 -8.48582
Si -7.24268 3.31201 -5.52385
Si -6.59551 6.52554 8.52145
Si 2.14256 -9.87778 -3.59944
Si -3.81608 -3.42215 2.63029
Si 3.76331 0.162744 -3.05621
Si -2.05645 6.12764 9.21059
Si -9.33517 10.4531 4.70006
Si -4.26898 7.44114 3.76878
Si 0.24537 -1.11897 4.55217
Si -4.35732 -10.4621 -3.1655
Si 0.81618 10.2889 1.90114
Si 5.57465 -9.64718 -0.787948
Si 2.04857 -7.49666 -7.73447
Si 2.41685 -3.14165 4.59392
Si -0.492802 4.61806 7.14739
Si 9.6786 -3.02753 4.76351
Si -8.53488 4.5426 7.10735
Si 10.5028 -7.19898 7.10172
Si -6.09977 -7.5758 0.616802
Si 4.86564 3.70686 5.60297
Si 3.48316 5.86073 4.01483
Si 10.2975 8.72444 -1.18766
Si 10.0451 8.46549 6.55984
Si -2.69684 -9.29147 6.19484
Si -10.209 0.574373 7.04532
Si 1.68357 -6.84515 6.99164
Si 1.53741 -0.486467 -5.20426
Si 2.75435 6.07476 1.07486
Si 3.57034 9.09963 -8.25802
Si 2.04928 4.06069 5.98184
Si 2.0029 -9.86793 6.71281
Si -7.82832 -4.81468 -8.28438
Si -4.95239 6.29464 -2.23452
Si -1.09665 -7.26627 7.95991
Si 5.52892 -6.70666 -1.85584
Si 9.20394 7.26844 -7.02466
Si 4.90487 -2.29836 -1.48887
Si 8.46475 -9.12496 -3.70998
Si 4.95026 4.40815 -5.49835
Si 10.2933 -6.20225 -8.60564
Si 9.4566 -8.34867 -0.779379
Si 0.486894 -2.41777 -3.01114
Si 5.03985 1.34606 1.69304
Si -3.06026 3.16264 6.38602
Si 6.45869 -1.08746 0.873429
Si -8.52394 8.75166 -2.98078
Si -9.87622 -8.64796 -5.34285
Si 5.6669 7.78888 7.56317
Si 7.42205 -5.14688 -8.56937
Si 0.726378 -1.4769 1.4173
Si -0.51308 1.83185 -6.08838
Si -1.38364 -5.74931 -0.389062
Si 7.95787 9.72755 -5.81285
Si -6.6231 -9.65166 -7.89245
Si -2.10363 -7.16516 -5.51899
Si 2.46836 4.70885 -3.38345
Si 5.29275 -7.39226 -7.70333
Si 4.0428 -4.57333 -5.55886
O -2.40989 -8.9644 -10.4582
O 9.59269 7.16407 5.76502
O 6.84134 -10.2123 0.0586438
O -2.95665 -2.95954 1.40957
O 1.67241 7.82417 6.31652
O 9.10542 -7.84866 7.36854
O -9.63495 9.51527 -2.13413
O 5.41196 -4.27275 -4.76996
O -3.64841 -7.30463 -5.08374
O 6.98281 -2.46897 6.85079
O 5.18546 2.17939 5.29239
O 8.32134 4.29712 7.53058
O -9.66093 -0.912065 -2.02386
O -0.492448 8.21481 7.42967
O -8.1106 6.11664 0.437345
O 8.89145 7.3658 3.31442
O -3.49424 5.55706 -2.04557
O 9.76324 -8.6315 -4.53159
O -8.43999 9.09516 -6.19259
O -3.01027 -3.85102 -4.15713
O 9.13227 8.27023 -8.28372
O -5.80236 -2.56691 7.17359
O -6.55705 2.0917 -4.68636
O -1.59819 -6.58645 -7.00483
O 6.37489 4.27299 9.13793
O 7.92746 6.01503 -1.27758
O 0.688674 -9.0917 1.5782
O 1.06897 9.64816 0.46942
O -4.68206 -4.53236 -2.16048
O 0.942837 -6.93518 -3.73232
O -8.00838 7.62643 -1.91814
O 5.44542 10.1961 -1.90688
O -4.8282 7.51464 -8.62298
O 8.27525 -0.991188 -6.27684
O 7.35885 -5.42911 1.2493
O -0.834872 -8.4455 -2.03051
O -7.45219 -3.24221 -8.56148
O -6.71652 -8.54773 7.28418
O -8.02092 10.3381 8.16957
O 3.2628 7.06865 -0.0952484
O 8.31136 6.07929 -3.986
O -4.92601 -9.12662 -3.77746
O 3.81279 -8.96347 2.92135
O 2.69753 9.92484 7.53404
O 0.87551 -6.40466 -8.13603
O 2.07513 9.66022 -8.64981
O -1.81472 0.617221 -0.77583
O -9.32739 8.09607 -4.19811
O -1.06055 -8.66508 8.80335
O -5.96232 0.939853 4.54894
O 9.23559 -4.5244 -0.409543
O 8.79889 -9.01732 -2.17068
O 2.82532 -8.46176 -3.94013
O 5.19342 8.94385 -4.35797
O -2.61587 -8.9311 -8.28027
O -1.63861 2.33413 1.27947
O 9.93766 -3.69079 6.2171
O 3.65568 -2.85401 -0.52898
O -1.85603 2.25996 -5.28806
O -5.06332 4.62974 -8.35692
O 1.84767 -10.2026 -2.0478
O 8.50509 5.02511 4.35954
O 9.67778 3.25926 5.59415
O 0.330729 3.22175 -6.25727
O 5.33973 -4.42018 2.72973
O -6.73649 3.16262 -7.01117
O -8.96157 1.37953 -2.91903
O -4.75293 3.45461 9.55128
O 10.3532 -6.81501 2.9468
O -1.1239 -1.63088 -7.66792
O -8.07101 -9.53035 -8.64889
O 0.338036 -1.48151 2.95909
O -10.0498 4.32538 7.56812
O 2.22538 5.33873 4.94464
O -4.31237 -1.45771 8.96141
O -1.34453 -8.24684 2.68554
O 5.28699 -4.39538 7.48079
O -1.12697 7.27842 9.68551
O 4.17444 8.04169 -2.2642
O 8.83698 -5.52948 -9.22248
O -7.68114 -3.19078 2.8434
O -0.927527 1.02067 -7.47828
O -5.40989 6.6753 -3.738
O 1.47006 -1.9623 5.0416
O -2.94064 -5.85105 -0.757084
O 6.25012 -2.00548 -4.75024
O -8.28214 9.41658 4.15119
O -1.74804 9.93936 -5.24488
O 4.42008 5.27416 -6.71874
O -3.79945 2.03754 0.167744
O -7.75962 3.26295 7.75974
O 1.82233 2.32471 0.00747697
O -5.19302 3.58699 1.73624
O 9.5161 7.75244 -2.14331
O -8.65088 0.167261 3.88534
O -1.16093 4.95674 8.57788
O -5.4793 -4.33131 -4.75133
O -2.90406 -10.0249 -2.57279
O -7.59582 -7.46894 0.0996214
O 1.37348 -6.54247 5.44091
O 5.90515 -2.01816 2.11798
O -0.711428 -6.80539 0.658953
O -4.02261 3.03717 -6.5003
O 8.40565 8.24031 -5.86275
O -8.86842 -7.44008 -4.96548
O 7.26497 -8.23555 -4.25919
O -1.48892 -6.78257 -9.45059
O 7.42443 6.95321 1.16726
O 6.41667 5.02568 -5.15653
O -7.60559 -3.62362 5.50613
O -7.42366 9.58358 -3.85331
O 10.0864 2.9061 -3.38725
O -6.01225 5.20759 -1.6475
O 3.40496 1.2383 1.56759
O -7.74414 0.950134 9.41117
O 9.51933 3.37134 2.87116
O -1.26171 -1.4557 5.07847
O -4.37127 1.38643 2.6342
O 7.14 -4.9147 5.84077
O -9.36081 -8.21845 7.69344
O -5.96501 -8.18303 -7.97983
O 5.90845 -2.46555 4.56823
O -4.29979 9.77161 0.461541
O 7.59663 2.3025 4.4547
O 5.31496 2.87449 -5.45356
O 10.1582 -4.6013 -5.33193
O 8.49635 4.46264 0.846327
O 6.68852 -6.23522 3.71166
O -0.46337 -1.19349 -2.35528
O -0.992857 -5.63473 4.33807
O -6.33192 -6.96268 -4.41877
O 3.41342 7.44966 -5.60607
O 4.23441 7.13146 4.51521
O 2.0421 -1.06457 -6.6195
O -7.85635 5.80539 7.87565
O 10.416 -3.1504 8.7268
O 10.3889 -5.75062 7.66647
O -5.30781 -3.16039 2.2693
O -10.4077 -0.661938 8.06026
O -7.48756 -1.38733 -6.70293
O -3.25494 5.51122 10.1529
O 1.41718 -4.33813 4.01379
O 2.94254 0.989205 -1.93291
O -9.77295 -2.9449 -0.391056
O 1.46474 -3.04146 -1.89679
O -8.53361 -9.74007 5.87151
O 7.38851 1.97345 -4.09754
O 1.25463 4.77922 -4.41841
O -9.88101 4.00713 0.940611
O 1.92882 -7.62863 -6.12166
O -3.60098 -9.2701 2.30779
O 6.32783 -3.97434 -9.01763
O -7.1087 7.99143 8.72545
O 3.63969 4.73885 0.851227
O 5.79856 -8.25274 -1.50534
O -1.32994 5.90586 -0.248127
O 4.95507 1.12502 -3.53222
O 3.02085 -3.34866 -5.83774
O 6.39656 -6.41429 -8.43094
O 5.65778 -6.59218 -3.3967
O -9.06767 -9.88156 -4.79561
O 1.34383 -0.11951 0.974802
O 5.46063 2.83763 1.29856
O -6.22216 -7.42647 2.26636
O -7.71208 6.83939 4.35614
O -1.68871 -8.05173 6.59432
O -0.553491 4.60569 1.99992
O -8.60499 1.00871 7.07733
O -10.1032 5.72185 4.02466
O -5.18872 10.0487 -1.85055
O 6.90229 7.93855 -2.58015
O -4.8754 7.61878 -1.23885
O 3.52449 7.46453 -8.08235
O -8.73556 3.36042 -4.85564
O -0.564179 9.83785 9.28638
O -9.99444 -8.05473 -0.887947
O -7.64791 6.74356 -5.38045
O -9.57636 8.33311 7.50067
O -8.32116 3.88463 -2.42624
O 6.36319 9.00696 8.40555
O 3.25796 -3.87636 5.7641
O 0.427492 -10.0778 7.1531
O -8.03908 4.7376 2.68507
O 5.64443 -7.17666 -6.06655
O -5.87719 5.82361 9.80968
O 10.3893 -0.610449 0.445389
O 6.24552 0.272273 -5.68547
O -5.67823 10.1224 -8.31063
O 6.56218 6.43529 7.74144
O 3.72657 9.57913 -6.70473
O 9.45683 -4.18453 3.59099
O -0.615387 10.1157 -1.46155
O -6.81581 8.60784 -0.0131346
O -3.26121 -4.84836 3.17427
O -8.01556 -0.743659 -4.09335
O -5.05425 1.79539 -8.57198
O -7.43592 -4.98106 -6.73852
O 6.06741 4.32769 6.46708
O -0.373215 6.02765 6.31249
O 2.48023 5.9684 -2.38376
O 7.42064 -9.67217 7.58932
O -3.10621 -7.22636 4.12804
O -3.53365 5.0273 0.433531
O -1.18815 -4.22546 0.167402
O -6.42133 4.5608 -4.93561
O 8.76776 -6.9213 -0.515294
O -4.85613 -0.798996 -1.05588
O -9.26668 -4.96162 3.95374
O -2.05664 3.4516 -1.01206
O 2.29458 -8.33353 7.07317
O -7.1416 -1.15029 5.49952
O -9.62244 8.11088 -0.126434
O -8.53487 -5.18698 -3.98113
O 8.39134 5.92055 -6.70935
O -3.67909 2.30829 5.20044
O -8.24148 -7.62876 3.80587
O -3.24883 9.7405 -9.26646
O -7.43499 3.74327 0.0140932
O -8.83354 -2.93244 -5.19294
O 6.36805 8.1427 3.33679
O -0.803611 2.60837 3.72616
O 1.0986 6.05022 0.84879
O -2.52175 -9.51043 -0.164488
O -3.99474 -4.14463 8.08077
O -5.18613 0.503288 -3.22203
O 5.52912 -3.34469 -2.51643
O -0.616664 5.66547 -6.14871
O -9.33314 -5.60955 -0.730149
O 2.91766 -5.73532 7.3384
O -2.98253 5.96837 -7.35744
O 1.89694 5.57224 -6.76106
O 10.4931 0.217969 5.56071
O -4.27202 0.879843 9.90427
O -0.569726 9.732 2.58879
O -6.87868 -9.95585 -6.23562
O -4.16975 2.84492 -3.93901
O 1.21133 1.88549 2.58346
O -6.11098 2.74251 -2.22646
O -4.45444 -6.85476 -2.61425
O -3.41389 -2.11208 6.49052
O -6.78127 -1.59933 0.636216
O 4.44669 4.52974 4.22409
O 9.77816 -6.36494 -7.06124
O -6.55162 -0.903676 2.97208
O 1.46677 8.09944 8.88202
O -8.81115 -1.38401 10.0161
O -1.13179 -3.68496 -5.91964
O 2.39157 -10.0014 5.17737
O -5.09948 -5.78569 -7.04164
O 0.309567 -10.3897 -6.73129
O -8.40735 -2.20663 7.63156
O -5.6564 8.32005 4.06407
O 6.62752 -5.82993 -1.09572
O -2.45904 7.51459 -5.25229
O -2.78137 4.8239 -5.09431
O -5.74375 -0.919789 -8.54265
O 1.5644 2.85956 5.01925
O -3.24815 -5.28227 5.79956
O 5.69212 -8.96005 -8.04053
O -4.51983 6.16577 2.72096
O -8.07315 -7.18466 -2.46557
O -5.91396 -7.55126 5.0205
O 1.4226 -8.83367 -8.41157
O 0.384217 -6.76875 7.839
O -3.89534 4.57877 6.5318
O -0.614376 8.07224 4.70998
O 3.52713 -2.62721 3.58433
O 8.99252 10.3895 -6.91299
O -6.23735 -0.670543 10.6056
O 6.73136 -0.0973812 5.30559
O 1.02146 -3.1269 -7.46659
O 7.95602 -4.69158 -7.12461
O -2.51563 -9.59478 4.67398
O -10.2773 -1.95931 4.30765
O 8.40738 -2.10866 4.91064
O -2.2656 -6.16626 8.10799
O 1.56195 -2.71621 0.839387
O 3.67136 -7.1712 -7.98084
O 8.71687 3.80323 -5.25942
O 4.81435 -5.98618 5.54817
O -0.702542 -1.73114 0.761862
O 4.01805 -6.54215 -1.33169
O -5.18277 -8.85018 0.278279
O 9.4217 -1.44977 -4.13604
O -1.53315 -5.91642 -4.67651
O -0.625238 -5.93615 -1.77111
O 10.0057 1.90638 7.57716
O -10.4819 -3.49532 -3.13306
O -4.25253 -8.98537 6.45884
O -4.15045 -7.00155 -9.30935
O 2.2353 -5.03338 -0.240199
O -10.4513 9.61006 5.45522
O -9.43101 -5.18862 -8.60996
O 4.66373 -4.51178 -7.05772
O 6.60869 10.0384 -6.70551
O -10.2027 7.17368 -6.6084
O -3.43017 2.2662 7.67431
O -6.03598 0.970265 0.707263
O -0.973562 7.2185 2.08959
O 9.87556 0.146379 2.85844
O -6.80468 -5.48757 3.82359
O -4.18746 9.38446 -4.22183
O 4.93894 9.72777 -8.81394
O -9.93027 -0.710796 -5.95821
O -2.9029 6.50663 7.85965
O -4.93439 -2.20049 -3.27838
O 4.04612 7.69928 7.74073
O -2.3487 -2.08888 -1.00328
O 10.2822 -10.2419 -8.93778
O -7.32965 8.54755 6.27373
O 2.88379 -7.40042 0.801117
O 4.14502 3.0932 -0.897076
O 3.53937 3.85043 6.39087
O -10.0074 -9.35746 3.83063
O 8.0772 10.4288 -4.35994
O 7.88184 -6.03666 -5.02558
O -10.2458 -7.30593 5.47241
O 7.9136 -0.550905 1.11793
O -8.30943 4.66868 5.55021
O 5.70077 0.938602 3.15675
O 4.2528 -1.17738 -2.46181
O -10.2033 -7.68035 -9.12077
O 7.89682 -3.46638 -3.4263
O -1.29283 -8.5477 -5.35891
O -5.88244 1.65344 7.97568
O 9.07001 -9.31119 0.448689
O 8.85365 9.08143 7.43772
O -4.79075 -6.57912 7.19814
O 0.986431 4.22286 7.08757
O -3.97499 6.74761 5.23021
O 0.534006 0.505433 4.73546
O 4.46811 9.82126 4.25693
O -0.513106 -3.61975 -3.46877
O 5.61446 0.280532 0.607345
O -3.15418 -0.0976285 -8.43814
O -5.40106 -6.35628 -0.118945
O 9.09721 9.44008 -0.423662
O -2.91064 4.10781 2.70351
O 9.21366 -1.93346 -1.60657
O 5.89184 -2.09852 -7.23454
O 2.75807 0.0534849 -4.32718
O -5.40258 6.45188 7.44354
O 9.53315 1.13038 -5.10488
O -1.51394 3.49927 6.48204
O -3.38732 -2.56434 3.92094
O 2.81496 9.88734 -4.30193
O 6.08397 4.95402 0.0609583
O 3.16671 -5.8537 -4.94135
O 4.5134 -9.25381 0.354051
O 0.635781 -9.8405 -4.24392
O 2.08918 10.0237 2.88576
O -3.53776 -0.186876 4.68567
O 3.05994 6.31379 2.55943
O 6.87484 -7.47425 6.10595
O -10.1826 -4.6914 1.49866
O -9.75196 -8.82646 -6.92279
O 8.08986 9.46062 1.94555
O 0.713224 -6.77309 2.85676
O 7.60925 10.3796 -8.99199
O 8.13322 -4.41214 8.05041
O -2.17365 -10.4014 7.20797
O 0.375358 0.69176 -5.31886
O -0.590101 10.498 -9.11369
O -2.91873 8.23501 3.30802
O 1.57945 8.38159 -1.59751
O 1.04589 -1.77836 -4.36313
O 9.45514 1.81368 0.983489
O 6.03173 -1.8149 -0.531315
O -3.73989 9.11842 -6.83015
O 5.8328 8.42229 6.00444
O -5.64084 -3.18691 -7.01297
O 1.46059 -7.27539 -1.3473
O -2.92773 -0.494609 -2.85119
O 2.17775 3.40396 -2.48632
O -6.7383 -5.87257 -8.94497
O 3.67872 -2.67182 -8.21724
O -0.942652 -4.4403 -8.3663
O 3.77982 4.67087 -4.31321
O -5.34353 6.28483 -6.43007
O 5.28519 -7.00129 1.73369
O -7.31217 -0.100849 -1.44065
