597
Atoms. Timestep: 1790001
Si 8.50633 3.86617 9.41554
O 8.6698 4.96066 10.7128
H 9.55977 5.23128 10.9057
Si 9.53266 -9.17874 -9.68192
O 9.97539 -7.88619 -10.7681
H -10.5014 -7.19792 -10.3959
Si -0.725051 -10.0224 -9.84481
O -0.369021 -9.84 -11.4754
H 0.0767393 10.4539 -11.9033
Si -5.22847 4.63033 8.75951
O -4.6651 4.37466 10.3759
H -4.59279 5.1342 10.9419
Si -1.56132 -7.04232 -8.9432
O -1.45059 -6.17389 -10.4293
H -1.32722 -6.70075 -11.2101
Si -5.95002 7.76555 8.77558
O -6.22455 8.26553 10.3681
H -7.11571 8.51771 10.5796
Si 1.36694 1.93119 -9.54131
O 1.36169 1.1769 -11.1001
H 0.512829 1.11704 -11.5225
Si 6.5738 1.74538 10.813
O 7.10815 1.90107 12.362
H 6.65635 1.32606 12.9684
Si -0.554535 -3.35337 9.52722
O -0.523788 -3.24397 11.1912
H -0.65964 -2.38849 11.5813
Si 3.53016 2.65052 10.1513
O 2.42348 2.3339 11.4066
H 2.65399 2.64491 12.2742
Si 6.87882 10.1214 -10.4062
O 6.34913 9.66362 -11.9896
H 6.41218 8.73738 -12.1912
Si 2.40804 5.47719 9.32914
O 2.14506 6.38486 10.7998
H 1.69947 7.21561 10.6823
Si 0.538429 -6.04193 8.34922
O 0.864497 -7.36981 9.36357
H 1.77124 -7.44611 9.6365
Si -1.81059 1.58205 -9.20807
O -1.87332 0.880707 -10.7551
H -2.69046 1.04772 -11.21
Si 4.65413 -3.43727 -5.76925
Si 0.605485 -6.4175 -6.76066
Si -10.1887 4.86046 2.49376
Si -8.66284 -3.95143 -6.07298
Si 7.98392 3.39212 -3.65357
Si -8.96677 -9.23746 6.91453
Si 5.45981 4.37671 2.66489
Si 8.35566 0.26655 -6.19635
Si 5.42971 -0.426651 -6.28647
Si 9.93452 7.96119 -4.79022
Si 1.74274 -10.2113 -5.32512
Si -8.51428 -3.89633 -3.0915
Si -5.90976 -10.2123 -8.53617
Si 6.96147 1.76279 1.66222
Si -2.95114 8.96037 1.41258
Si 7.01922 7.95903 7.07096
Si -3.41246 -9.15336 2.50371
Si -10.2389 7.45377 -7.84895
Si 10.2406 -5.35489 5.4237
Si -4.86226 -2.0207 -6.07978
Si -4.76372 6.47884 1.27205
Si -3.07451 -0.83034 4.21681
Si -4.19076 -2.75949 -3.03728
Si 1.44621 -1.89146 7.64618
Si -7.29767 -5.63083 1.2285
Si 9.80314 7.33663 6.55001
Si -3.5045 2.50729 -5.41102
Si 10.0892 2.31796 0.734174
Si 9.39879 -8.12578 6.96494
Si 3.58642 0.336663 8.01532
Si 6.10202 5.04708 -7.83212
Si 1.80024 5.44139 -0.575166
Si -7.8884 6.16617 -1.51942
Si 4.36277 -1.95285 2.76781
Si 5.67164 0.222211 -0.879041
Si -3.28617 -9.62203 -5.88908
Si -3.16343 9.51004 -8.51879
Si 7.5665 -10.3402 5.41374
Si 2.61708 3.47083 1.56781
Si -0.59607 2.49495 5.76237
Si -10.0356 -4.5866 1.29354
Si 0.210935 -1.24736 -0.477627
Si -0.821598 3.98023 -1.19035
Si 1.46928 -1.7833 2.28348
Si -3.7301 5.03724 -1.35275
Si -3.36603 -9.20089 5.71459
Si 1.48402 0.902503 -4.39342
Si 7.30565 4.94168 6.74953
Si -6.59374 8.90809 -1.83982
Si 3.02314 -3.17904 -3.15076
Si -6.3683 -8.12236 5.69134
Si 6.01183 -6.26163 -5.79504
Si 10.0398 -7.03492 -2.40266
Si 9.92034 4.36839 5.60259
Si -4.50762 -7.49039 -7.66539
Si -8.00807 -6.21494 4.14807
Si -0.5891 -3.67095 2.80711
Si 3.83402 6.70022 -2.43972
Si -4.18112 -5.22848 1.77242
Si -9.37 9.47258 2.1174
Si 7.5948 -5.21606 -3.21052
Si -1.72379 6.56635 5.64475
Si 6.9506 0.61328 4.67023
Si 4.0174 -5.85411 4.45285
Si -4.94388 7.218 -5.01179
Si -8.97162 -7.75826 -0.32199
Si 2.5332 -5.55178 -0.992808
Si 3.98986 7.36169 7.25457
Si -10.4292 2.66158 -2.30987
Si 3.23286 4.02437 -8.43319
Si -2.97938 -2.46156 1.53113
Si -2.92819 4.68817 3.26339
Si -7.25741 2.2775 8.23312
Si -0.836546 -0.550099 6.27468
Si -0.636489 3.15005 -4.28922
Si 1.71422 8.01413 1.32464
Si 6.46332 -0.736579 8.96078
Si 6.05562 9.19197 -6.22968
Si 8.36063 -9.51963 -1.67885
Si -4.55198 1.69042 0.551906
Si 6.88283 -6.53371 7.1354
Si -8.97782 10.3039 -8.34575
Si 9.63428 -2.95421 -3.30572
Si 10.0983 9.50008 -0.434606
Si -4.99727 -7.96076 -1.61878
Si -1.03735 -7.41761 5.91892
Si 4.04842 1.89675 5.41451
Si -10.3571 -2.46002 6.26908
Si -8.77969 4.71173 -3.98713
Si -7.71425 -1.64065 -1.04835
Si -0.630235 -8.38982 -4.48064
Si -4.86716 -1.22804 -0.530358
Si 8.21655 -10.358 -4.76251
Si -2.65263 -0.219094 -6.69226
Si -0.333782 3.26329 2.68011
Si -3.96274 8.70486 6.51047
Si 8.47625 6.25251 -2.60641
Si -8.51172 -9.40433 -5.4625
Si 10.3486 6.46415 -0.122255
Si -7.60976 6.76162 2.48899
Si 1.63333 -8.71723 1.75867
Si -4.49266 -2.97959 5.85238
Si -7.27148 0.174563 -5.87021
Si -6.46402 8.58026 4.55932
Si 9.84169 -7.53367 1.75586
Si 7.00706 -6.96723 1.44486
Si -1.29641 1.3949 0.414468
Si -0.223699 4.65069 7.76283
Si -5.88197 4.17931 -4.66557
Si -4.25762 -10.4716 -3.10055
Si 8.52219 -7.88363 -6.84988
Si -2.89823 -1.6467 8.30762
Si -6.0425 -5.40804 -3.23418
Si -0.291527 -6.37317 -1.94318
Si 1.93979 6.71587 -7.25086
Si -9.5941 -2.28947 3.42089
Si 6.27419 7.81642 -1.02491
Si -9.26726 9.75099 -3.14923
Si 1.80483 -5.68121 2.09204
Si 4.68049 4.67995 5.71017
Si 4.72496 -9.1517 1.40491
Si -8.42971 8.75518 7.0368
Si 1.69698 9.6477 -8.27147
Si 7.58156 7.73608 -8.55857
Si -1.13869 -3.28032 -2.5647
Si 4.21666 9.11136 2.95775
Si -1.7938 9.34993 -1.59841
Si -0.598517 8.52967 3.4596
Si -9.96034 -0.636381 0.999247
Si 3.15886 10.0236 5.8559
Si -5.91745 -5.02316 -6.40425
Si 6.63958 0.824249 -3.76716
Si -4.61017 0.743908 8.45527
Si -3.28991 6.46177 -7.6334
Si -6.9895 -9.76059 -0.0325928
Si -0.670236 5.78073 -5.78345
Si 3.13422 9.87975 -2.7706
Si -6.26617 3.4576 -1.38619
Si -4.39198 1.9028 3.71656
Si 4.61528 6.54534 -5.44354
Si 8.87825 0.0648769 6.92056
Si 0.879046 10.4359 -0.564099
Si -4.0856 3.60727 -8.3794
Si 7.24055 -5.27827 4.093
Si 8.94564 8.63543 3.57552
Si 6.23232 -2.55845 4.98983
Si -2.48128 -7.16609 0.174584
Si 5.52402 -10.1213 -1.50201
Si -9.57823 4.57698 -7.08139
Si -9.95775 -6.8063 -5.39169
Si -10.1309 -1.45238 -5.88793
Si 0.598212 -9.79239 4.54716
Si 6.60967 7.25327 2.03668
Si -6.89615 2.95355 -7.45032
Si -2.76603 3.20045 7.82714
Si -2.34162 7.01812 -3.41577
Si 5.93551 -3.64985 8.03218
Si -0.259426 -1.62727 -5.09711
Si 3.03375 1.35611 -7.10663
Si 3.39928 -7.81211 -6.63061
Si 4.55429 -10.015 -8.42408
Si 6.05725 -2.76303 0.327953
Si -5.90423 10.0406 -5.52997
Si -2.86221 -5.25088 4.38559
Si -9.62215 -8.92652 3.81585
Si 3.05682 -4.46938 7.20767
Si -7.63829 1.00591 -2.85015
Si -10.3122 2.41634 7.81717
Si 8.53167 3.42877 -6.6725
Si 2.85913 -0.251791 -1.99151
Si 3.00128 0.789615 2.71249
Si -7.43902 -2.22241 5.53022
Si 1.67256 -3.6756 -5.78814
Si -6.21504 0.735213 5.80884
Si -6.35245 -9.8096 2.85772
Si 5.08077 -8.46649 5.84219
Si 9.11434 -2.73005 -0.258215
Si 5.45167 -5.45449 -0.873421
O 4.17157 -0.360295 2.51754
O -4.25929 -1.77003 4.75576
O -3.1983 6.049 -2.51739
O -10.4996 -2.07009 4.72289
O -4.15631 -8.37515 -6.37828
O 3.2851 8.71443 6.8377
O -9.88677 3.95521 -3.11432
O 6.49051 0.492235 -2.23774
O 9.44283 7.94809 5.01947
O 3.18027 -3.6318 -6.41827
O -7.53646 -0.377272 -2.05681
O 9.10341 2.4845 -2.92973
O 3.45205 -5.10942 5.77628
O -4.42655 6.82783 -6.50319
O 10.3387 -4.04191 6.42881
O 0.743791 -2.44423 -6.05994
O 7.14558 8.66402 -9.80639
O -8.71759 10.2898 7.41701
O -9.22052 -10.2587 3.0626
O -3.40919 0.754437 4.25232
O -6.35163 3.8415 -6.24409
O -7.58124 -8.47854 6.71465
O 9.67766 -1.46217 0.611246
O -9.25666 -9.99783 -4.14477
O -7.29346 3.96685 -3.92838
O 3.12177 10.3161 -8.72925
O -5.28298 9.50076 -2.53799
O -8.51847 6.02507 -3.02328
O 0.897223 -1.96139 0.785545
O -5.9109 8.49142 -5.15734
O 4.55112 -6.99582 -5.86493
O 1.42784 10.1104 -6.76457
O -3.8155 -2.49654 7.22678
O -4.37385 5.88897 -0.139727
O 4.08801 0.337149 -1.21053
O -0.899492 5.7888 6.79682
O 0.662953 8.0814 2.54476
O -3.54926 3.29938 3.64728
O -7.79102 -6.97012 0.477168
O 3.21235 6.58024 8.40696
O -10.0293 -8.18159 0.797763
O 3.70675 0.911848 6.57115
O -8.27217 -9.11629 -0.765183
O -8.87434 -1.17546 -0.056682
O 3.14576 8.51543 1.9453
O -8.827 2.182 8.41918
O -0.707026 -2.61521 -3.9897
O 6.89036 -6.08517 -4.42836
O -3.52754 3.23641 -6.81485
O 2.88946 1.98644 1.64396
O 0.255902 -2.40086 3.17955
O 5.25338 -3.9895 -0.251339
O 2.25887 -5.32476 0.580859
O -1.70474 -4.36109 3.74062
O -8.73143 -2.35822 6.51148
O 6.24243 1.08337 0.349698
O 3.14108 4.14781 9.59049
O -5.83114 -8.9391 -0.729755
O 10.1078 -3.88707 0.0947767
O -2.08297 0.543433 -7.97675
O 0.604496 2.13406 -4.28421
O -6.11549 1.29817 8.97846
O -2.06479 -6.43459 5.10223
O 0.570597 6.39939 -6.49018
O 5.83565 4.3631 6.75792
O 7.47674 7.37372 -2.05006
O 6.62851 0.225908 10.267
O -3.50362 0.933153 -5.82828
O -9.37373 8.72501 -8.2863
O 1.7845 -0.266231 2.61063
O 4.14117 -8.5871 -7.83044
O 5.4614 5.56388 -6.36788
O 7.24765 3.94476 -7.51633
O 10.4148 -6.00671 1.64673
O 1.19224 -7.18647 2.0588
O -0.334924 -4.84661 9.00954
O -3.55797 -7.71868 -0.875895
O 6.34581 -2.37367 8.99689
O 2.77266 -4.23652 -1.90513
O -9.77017 9.82846 0.614653
O 3.90734 4.23253 2.19676
O -3.82203 -5.80122 3.22495
O 3.44941 8.31571 -2.47741
O 4.06527 -6.23679 -1.08854
O -9.14662 4.8481 -5.52932
O 7.8828 4.76784 -2.82373
O 8.30611 4.10388 5.73996
O -0.346061 9.93165 4.26532
O -2.55237 5.59872 4.61653
O 8.55611 -9.20133 -5.84786
O -1.49404 -0.974089 -5.92855
O -5.23757 -6.15017 -7.30993
O -2.3328 4.40165 -0.8273
O 5.42544 -5.28915 3.89391
O 1.91496 -3.54128 -4.19854
O 6.6583 7.71467 0.539878
O -4.65187 -1.54147 -2.06253
O 2.08104 -6.95169 -7.04927
O 8.57025 1.79258 -6.60103
O 2.2469 3.31364 -9.5524
O 5.06003 9.98335 -7.28072
O 6.37224 -9.28803 5.30603
O -2.06299 -8.55009 6.42974
O -7.07503 1.70817 6.72403
O 1.94962 -5.40155 8.02379
O -8.1803 -2.49233 4.11282
O 0.397973 -1.45411 6.56625
O -9.59684 -9.26758 5.40044
O -10.272 0.891013 0.817861
O 8.32128 -3.84201 -3.74239
O 0.511953 -4.73366 2.35123
O 2.15085 1.06777 -5.79777
O -0.801622 7.44769 4.62723
O 7.93573 7.65357 2.8261
O -7.58877 8.92376 5.60475
O 7.13338 9.44263 6.30908
O 3.16507 6.84342 -6.16638
O -1.5053 4.32324 2.48371
O -8.74575 -7.86858 -5.6547
O 9.58729 5.8971 -1.45085
O 4.78645 -2.32562 4.27459
O -3.62182 -1.87802 0.232402
O -2.76653 7.71413 6.29565
O 2.52511 9.88178 -4.28544
O -3.49519 1.88171 8.36584
O -6.3494 -1.96332 -0.279457
O -4.99495 0.436945 6.88984
O -6.92799 7.20521 3.87555
O 1.70003 -10.3175 5.59152
O -5.18646 -3.55847 -6.48833
O -6.23027 -1.05347 -6.05603
O -4.31193 -2.18831 -4.5174
O -7.03179 1.45023 -6.92196
O -0.815252 3.9357 -2.85335
O 6.74861 6.38981 -8.4191
O -9.55841 6.01546 -7.84012
O -7.61361 -5.21778 -2.90048
O 9.78456 -7.13099 -6.29364
O -1.62371 8.04573 -2.4836
O -5.6038 3.13957 -8.47008
O 8.69891 -9.42998 6.15038
O -5.671 -5.54136 1.17412
O -4.34198 -10.4556 -4.78193
O 7.1012 0.870444 3.02336
O -10.0275 -3.53977 2.49438
O 5.45579 7.95681 -5.49454
O 7.21318 6.49622 6.26285
O 8.30861 0.664876 5.50455
O -8.37914 8.1781 2.13617
O 1.26911 -6.37127 -1.62059
O 5.16387 -2.00788 -6.2356
O -5.54518 -6.60533 -2.33773
O 1.17049 3.66031 2.2431
O -1.27291 6.39856 -4.42414
O -3.09452 -5.85069 0.828191
O 6.33664 -6.1685 0.195191
O 2.33758 -3.06354 7.1062
O 6.69734 10.2572 -5.19034
O 9.06209 -5.16517 4.40071
O 5.53119 7.78119 7.62592
O -5.53495 5.75686 -4.56877
O 9.79779 -1.34247 6.9097
O -6.98908 -9.83177 -5.14802
O -9.08666 6.5717 -0.548706
O 9.3735 -8.29377 -1.72269
O -1.11479 -8.57394 -9.26602
O 10.3618 4.69851 4.0516
O 8.58449 7.80669 7.57744
O -2.97239 10.3705 -7.08777
O -3.6047 10.265 6.1006
O 3.19546 -8.6355 1.52651
O 8.53586 2.2077 1.1914
O 2.8527 -5.60368 3.27098
O 3.31972 1.49349 9.0663
O -4.0141 4.23468 7.76412
O 7.08606 -7.14016 -6.72588
O -7.5129 -5.54192 2.80087
O 4.81147 4.44694 -8.66273
O -2.83887 10.2501 -2.45312
O -2.07389 -8.97085 -5.04749
O -4.87044 1.69084 2.18912
O -1.88845 -0.686061 7.46282
O 8.0098 0.38534 -4.58167
O 10.1533 -1.90875 -4.41827
O -6.48957 3.73141 8.41446
O -8.20296 -3.42194 -4.6438
O -5.81301 10.1735 -7.09307
O 3.47435 2.86831 -7.33063
O 6.66328 2.43885 -3.78072
O 6.20045 5.69756 2.09892
O 2.10299 1.05855 -8.36233
O -6.82543 2.17456 -2.11332
O -5.40271 2.88464 -0.0748032
O 8.44174 3.80592 -5.0865
O 9.71272 7.9566 -0.221535
O 8.38265 -7.63207 1.08559
O -9.55234 -2.71922 -6.65502
O -5.83992 -5.53442 -4.84904
O -0.663276 2.50027 -0.685581
O -8.9464 -10.0949 -6.84793
O 5.07308 2.33909 10.5916
O 4.17024 6.17696 6.12622
O 8.84711 -8.38726 -8.38144
O 5.6027 -7.52881 7.0385
O -4.212 7.95633 1.45512
O 6.00648 9.36525 -1.38785
O 6.60551 -5.14791 8.00254
O 7.61076 -0.263507 7.88592
O 4.3746 -4.07539 8.04615
O -0.291494 4.23131 -5.44121
O -0.0655142 -8.42423 4.97275
O 0.566932 -0.447265 -4.41865
O -4.58416 10.0012 -9.15756
O -8.81784 -0.497255 -5.82635
O 5.51733 0.212457 -4.79312
O -2.52507 -8.22389 1.45392
O 4.1945 -7.44549 4.85075
O -3.80252 -0.561242 9.06305
O 9.11096 9.3291 -4.86912
O 3.69947 9.26284 4.49492
O -0.031939 -7.48009 -5.65007
O -7.14665 -9.78031 1.51276
O -4.67024 3.10751 -4.51506
O -3.72979 -1.35151 -6.98337
O 9.15735 6.87339 -3.87995
O -2.93299 1.53339 0.367232
O -0.335642 0.938257 5.94586
O 1.14909 9.06561 0.241108
O -3.02846 -9.11792 4.07845
O 10.3879 2.89966 -0.761057
O -6.17894 9.75619 3.48195
O -4.00075 -3.66517 1.94386
O 6.68068 -0.993017 4.96593
O -7.29375 4.68618 -1.148
O -3.72436 -4.27505 5.30749
O 4.07258 -9.69453 6.27624
O 6.75953 -9.18961 -1.53878
O -1.9832 6.02729 -6.80701
O 3.73653 3.38586 5.8382
O -5.02816 0.312556 -0.13049
O -9.25403 -5.44333 4.74736
O 7.53912 2.66135 9.87907
O 4.84005 -9.74054 -0.042374
O 4.69055 -10.4082 2.48582
O 2.56016 5.9043 -1.89516
O 1.44956 -0.441603 -1.21645
O 2.05953 10.4249 -1.72874
O -9.62134 -0.989534 2.49746
O -9.23484 1.58362 -2.75024
O 9.976 3.99424 -7.09298
O 6.08188 -3.101 6.48847
O -5.4668 -8.56054 -8.48987
O -10.1879 3.40376 1.7848
O -4.67895 -8.98548 -2.81901
O 9.20577 7.46187 -8.61406
O -10.4053 -7.13944 -3.90748
O 8.20031 9.93486 4.09388
O -9.83591 8.0192 6.96892
O -0.628509 -7.45093 -3.17852
O 10.0927 5.67623 1.2984
O 4.3915 -10.1458 -2.65295
O -7.43742 -4.66497 -6.76897
O 2.50942 5.41769 -8.02905
O 1.94472 6.59673 0.564946
O -8.7578 5.59363 2.50954
O -0.289753 2.8924 4.29726
O -5.13704 8.36038 5.40206
O -7.49295 -10.4907 -8.8952
O 8.15301 -7.35776 7.59882
O -8.43207 3.5202 -7.65315
O -1.48554 3.94243 8.50056
O 0.280342 5.00562 -0.723579
O 4.30198 0.444514 -6.94925
O 9.86835 1.08135 7.60988
O -2.35783 8.93614 -0.106965
O -6.10657 -3.04863 5.77146
O -5.5947 6.1898 8.6668
O 1.78154 8.01076 -8.13857
O 6.36293 -5.08491 -2.13021
O -9.56105 -5.29491 -5.68554
O 8.81463 -6.00406 -2.53949
O 0.422226 -9.65887 -4.61664
O -5.0332 -8.95304 2.45944
O 0.838312 -4.91837 -6.22477
O 2.39961 4.10717 0.0929099
O -2.14049 2.72385 -4.68022
O 5.011 -0.341569 8.39709
O 1.00485 -9.37448 0.419503
O 7.38875 -6.08469 2.72716
O -6.36872 6.53024 1.55005
O -1.96158 10.0418 -9.44983
O -6.61596 -9.07714 4.31079
O 5.53808 -4.72096 -6.13129
O 1.2366 -9.63314 3.03339
O 7.63295 -3.00062 0.249359
O -3.95463 5.51909 2.2722
O -1.82865 8.42446 2.4499
O 6.1872 3.04395 2.17099
O -3.0837 -7.11277 -8.3513
O 7.87768 4.76437 8.23942
O 8.80377 10.4563 -0.531147
O -8.45419 -4.65435 0.815499
O 3.21899 1.55901 4.07368
O 2.9133 -2.50339 2.39947
O -4.79733 -8.33579 5.9472
O -10.243 9.75701 -1.88661
O -6.82453 -6.67154 5.13706
O -3.60214 7.73049 -4.26044
O -8.03948 -2.84923 -2.0466
O -10.3393 3.26862 6.43132
O -0.245486 -6.56193 6.98537
O 9.62205 -0.686113 -6.45174
O 10.1744 8.88934 2.66461
O 10.0534 5.83651 6.36801
O -2.97572 2.71009 -9.11513
O -5.21583 -4.05435 -2.9562
O -1.19588 -6.76432 -0.709261
O 7.05866 -5.94881 5.60515
O 0.506525 10.2087 -9.17746
O -7.34295 8.07029 8.06472
O 0.267974 3.50399 6.72987
O -2.95274 -1.32244 2.65516
O -4.72525 8.49283 7.95091
O -2.0372 2.75238 6.36614
O 0.957635 5.21395 8.65429
O -4.99208 4.30749 -2.00802
O -1.98266 -2.63533 9.14986
O 2.51352 0.710043 -3.16729
O 9.22607 -2.42053 -1.84879
O 7.26279 8.68393 -7.26089
O -0.207739 2.01636 -9.08939
O -1.79498 -1.10345 5.06998
O 2.37909 -0.676573 8.06236
O -0.797266 1.94311 1.83444
O -0.430024 -2.32161 -1.48176
O 5.87318 -1.36641 -0.495843
O 7.15736 -3.61972 4.30321
O 8.39897 -9.96376 -3.24228
O 10.3173 7.51309 -6.24416
O 5.4901 -2.41531 1.81402
O -3.10594 7.92201 -8.27641
O -9.78777 8.48085 -4.00112
O 10.0414 -6.82355 6.09591
O 5.61888 1.47657 5.11243
O 5.36105 4.54235 4.28038
O -8.7036 -7.62939 3.63547
O 4.35369 -3.37076 -4.17388
O -0.558801 10.3082 -1.27841
O -10.1241 -9.97401 -9.22084
O 5.70417 -10.0671 -9.55508
O -6.81615 7.36787 -1.68169
O 5.50686 8.15908 2.84513
O 5.04489 6.85487 -1.33228
O 2.65564 -8.97568 -5.74398
O 5.81066 -8.03139 1.70875
O -1.50024 -3.08445 1.59077
O 6.95196 -0.192934 -6.8196
O -10.2815 -8.64477 7.68262
O 9.98286 -8.35748 3.09272
O -3.25128 10.3616 1.98855
O -7.18502 0.766487 -4.37788
O 3.15654 -1.66727 -2.64802
O -0.80507 -0.0406098 0.0236102
O 9.852 3.31154 8.87974
O -9.67414 -6.84643 -1.40239
O -6.66587 9.72412 -0.460105
O 0.584618 -2.38317 8.92155
O -7.0253 -0.657173 5.6125
O 4.35458 6.24792 -3.86824
O -3.76223 5.17405 -8.54329
O -0.518183 -6.46131 -7.90853
O -5.66696 1.7334 4.66239
O -2.71794 -3.25308 -2.58508
O -10.1462 -3.9809 -3.08897
O 8.28767 -10.0604 -10.2622
O -0.700709 -4.89817 -2.44558
O -7.78317 9.4781 -2.7837
