582
Atoms. Timestep: 1790001
Si 5.69446 -7.41037 -8.39898
O 5.52381 -7.42048 -10.1004
H 5.14388 -6.59355 -10.373
Si 2.90206 -2.69863 8.10593
O 3.06595 -1.4228 9.20224
H 3.8715 -1.3349 9.69809
Si 4.63332 -10.3051 -8.76667
O 5.0649 -10.0579 -10.3347
H 5.16183 -9.15135 -10.6016
Si 3.38099 -5.55988 9.37433
O 3.94938 -5.41554 11.0008
H 3.28295 -5.45897 11.6764
Si -2.40817 9.51249 -4.17122
Si -8.69498 -0.563889 -3.94528
Si -5.83068 -10.3695 7.38809
Si -4.5765 5.85033 -5.5123
Si 4.1105 -8.40277 -0.377745
Si -7.73341 5.79829 -5.95903
Si 0.174541 -0.578213 -0.300948
Si -3.98546 10.5052 -9.04454
Si 2.53456 0.611317 1.06524
Si -3.15174 7.25997 3.96761
Si 5.08272 -0.982462 0.903477
Si -7.89374 -2.59738 -1.73835
Si -4.65247 8.81991 -6.38233
Si -1.39412 4.89004 8.03455
Si -2.39578 -3.75374 -2.08058
Si 4.36974 -8.76081 -6.18404
Si 9.07521 -9.93407 -6.3532
Si 8.98414 9.99643 2.15469
Si -6.63786 -7.46132 7.90304
Si -1.6135 -5.14283 8.30199
Si -7.28411 9.11503 -4.67165
Si 0.262184 1.25098 4.90492
Si 9.00396 -8.45835 0.374794
Si 2.96428 -4.90481 2.95492
Si -9.16798 6.91287 -8.37574
Si 6.87786 -8.39983 -1.97382
Si 8.57222 2.21716 -5.25598
Si -8.69131 -1.21196 0.987387
Si -2.33346 -9.74638 3.71062
Si 1.75866 8.50417 7.56563
Si 6.07371 -6.76502 -4.49876
Si 1.64234 -4.26599 -10.151
Si -0.525261 -0.374515 -5.88234
Si 7.88211 -6.23104 2.18156
Si -1.82458 -0.13794 6.71787
Si -1.99881 -4.23686 2.48089
Si 8.56329 10.2371 -3.26468
Si -0.209213 -6.4122 -8.98748
Si -9.92519 -9.77008 -1.54666
Si -3.35527 -6.47704 -6.16721
Si -5.43078 -3.65337 -8.83499
Si -0.201815 6.51327 3.22832
Si 5.02632 2.113 0.855654
Si 7.06357 9.13597 7.30409
Si 8.95008 -6.53724 7.55463
Si 10.0579 -4.1314 -3.97935
Si -5.84029 1.45628 4.85982
Si 0.263323 9.58146 -0.339843
Si -3.48198 -7.76121 0.0740292
Si -8.23171 -0.33867 8.30806
Si 10.0936 1.02791 -2.63695
Si -5.66314 5.21459 1.46084
Si -8.01266 3.67649 0.209398
Si -4.98347 -2.44245 -0.947571
Si 9.22379 -1.23107 1.6658
Si 0.923923 -7.03858 8.24454
Si -7.67066 -5.74642 -8.89952
Si 7.66704 -0.61657 -5.78105
Si 4.95013 -7.38687 2.39176
Si -1.12282 -5.88299 -0.140527
Si 10.0143 0.770046 7.86463
Si -1.0324 -9.39814 -8.58577
Si -7.88413 -8.84436 -6.4611
Si -10.4106 9.78191 4.67868
Si -7.42761 9.35694 5.197
Si -5.72224 -0.744939 -7.81375
Si -4.85196 5.12763 -2.57242
Si 7.44129 5.88927 4.47723
Si 5.56723 -8.4652 5.41028
Si -1.30771 -4.74534 5.30717
Si -4.11497 2.32647 1.12699
Si -3.65896 0.198756 -5.61572
Si 9.99037 3.1368 -0.191065
Si -10.1229 -4.85141 -1.28489
Si -7.55831 -3.91743 2.23777
Si -0.807542 3.53786 -2.8912
Si 8.70122 7.19353 -2.94303
Si 9.05223 6.93284 -7.10497
Si -2.57365 -4.52522 -8.37327
Si -9.12311 -3.88602 -6.59614
Si 4.536 7.94861 -2.38562
Si -10.3483 -1.09249 -6.6597
Si -7.14261 9.81124 2.29216
Si 1.13416 -5.15958 -6.37522
Si -0.0214385 -1.87849 -3.10342
Si 10.3141 7.36839 1.28516
Si -4.66224 -2.64584 2.13539
Si -4.48144 -7.46867 3.12456
Si -4.16227 -1.21476 4.77577
Si -6.51487 2.66252 -2.52321
Si -5.38938 5.55142 4.60072
Si -9.49249 -8.04716 -8.96779
Si 0.319935 4.39215 5.55075
Si -0.498079 2.74846 -5.87861
Si -1.36379 -8.78242 -5.44734
Si 1.87682 -9.58716 -2.1913
Si -7.58105 -8.03921 2.8428
Si 5.65353 -3.04991 6.52571
Si 1.64254 -9.1666 -5.26889
Si 7.39936 5.18764 -5.09371
Si 4.71613 3.91746 -1.41477
Si -8.5468 8.76643 -0.219566
Si 8.99111 1.58851 2.45367
Si 4.58641 9.15583 -5.14428
Si -4.5022 8.25012 1.43536
Si -3.35052 3.42404 5.06354
Si 7.44703 -0.617768 6.77568
Si -8.63758 -1.22126 5.2506
Si -10.0976 1.87306 -7.08879
Si 1.29271 -6.35098 5.06261
Si -5.84295 -6.90834 -1.94201
Si 7.29064 6.09908 7.65565
Si -2.99027 7.36973 7.0946
Si 1.63253 7.35082 -1.57963
Si 1.73829 -6.68973 -1.17994
Si -7.19455 -3.35416 8.45955
Si -0.295427 4.53186 0.967823
Si 8.46797 -9.46508 6.36575
Si 6.61624 8.85564 4.01595
Si -3.40905 3.07022 -6.65528
Si 8.87958 3.56179 7.53615
Si 5.46941 6.60996 0.0582431
Si 6.28899 -3.0075 -1.33148
Si 4.44831 4.93621 7.45754
Si -4.67993 0.121743 -2.76673
Si -5.19889 -5.98103 5.60161
Si 1.62522 10.1473 -7.99731
Si 10.4393 6.77129 4.22144
Si -7.62142 1.9596 -5.23247
Si 8.68911 -1.6516 -2.92669
Si 4.50955 5.17486 -4.08404
Si 8.78736 -7.28877 -7.74251
Si 6.04365 2.3166 6.39473
Si -0.0972934 -2.72198 -7.84559
Si 5.95299 -6.08279 7.55226
Si 9.33325 -2.10561 4.71881
Si -5.43523 -7.96217 -7.92748
Si 2.0184 7.77615 -6.4061
Si 2.21885 -0.673446 3.88988
Si -0.205105 -2.64235 7.3209
Si 4.13115 7.8825 2.62324
Si 4.34621 9.8482 6.7287
Si 1.74492 -4.48306 -3.56361
Si -3.36243 8.52248 -1.41952
Si 3.84875 -4.72907 -7.96626
Si -7.63791 -8.92209 -3.55472
Si 1.65803 4.18032 -1.49116
Si -9.8805 7.37469 -4.73319
Si -0.00937485 7.47852 -4.33017
Si -2.74127 10.3349 6.71856
Si -4.57907 -4.86566 -3.9402
Si -6.18116 7.66936 7.42634
Si -2.26793 1.26497 -1.1834
Si 1.52781 5.06108 -5.42659
Si 0.761553 -2.78936 2.03926
Si 1.31266 9.23382 2.5399
Si -8.05803 -6.34855 0.322964
Si 8.07825 -4.89187 -6.12918
Si -1.57168 2.32552 2.83017
Si -8.40313 4.02078 -8.38448
Si 3.44079 7.2213 5.4511
Si 0.158444 -9.91357 7.47414
Si 6.81417 9.13281 -7.2208
Si 9.05656 -5.27787 4.70483
Si -2.57881 10.3038 0.663248
Si -6.99483 1.32036 1.9161
Si -6.04369 2.18833 -7.86939
Si -4.72781 -5.16265 8.49489
Si 1.60127 5.48644 8.11179
Si 4.73261 -2.38315 3.70475
Si -6.22092 -3.13459 -5.88169
Si -3.11307 2.38179 8.00438
Si 6.37341 3.06048 3.43239
Si -2.19373 5.71789 -1.28316
Si -9.60348 4.36748 5.77428
Si 8.36138 5.73755 -0.15887
Si -9.41429 10.1762 -8.11429
Si -8.92584 -5.8193 4.4902
Si -6.23219 2.02541 7.94756
Si 4.75881 -4.09072 -3.79865
Si -9.85729 1.3837 4.85565
Si 8.31453 -3.86716 0.333625
Si -6.38825 -3.26231 5.39603
Si 0.705097 -9.35406 4.46884
Si -7.02259 4.86596 7.32241
Si -9.11764 -5.7086 7.71922
Si -6.33639 7.54843 -2.11894
Si 5.89879 -2.83216 -6.46848
O -2.25963 6.2139 7.93601
O 4.27214 8.6645 5.6552
O -2.20918 3.56781 8.64874
O -6.37997 -3.12644 -1.41729
O -0.412226 -6.13093 8.68685
O -7.17816 -10.4013 -4.07753
O 7.96091 -8.1404 -0.797571
O 3.45313 1.8627 0.800026
O -4.59329 -5.21437 6.85955
O 1.91827 6.15569 -6.52205
O 0.397405 7.9605 2.98374
O 7.2399 -7.36012 -8.18114
O 9.00608 6.01415 4.04662
O -7.04694 -6.77391 -0.876246
O -4.25447 -10.2885 7.09054
O -8.46712 -4.35411 8.43098
O 10.2313 10.195 3.15031
O -0.829191 3.33804 1.92728
O 4.05011 5.97667 6.28454
O 1.37451 0.146281 4.94504
O 7.4952 7.69818 7.81589
O -8.11996 -1.78073 -3.10478
O 0.0843187 5.07534 8.60875
O -6.68466 -4.5624 -9.41565
O 0.704687 -8.60507 8.22211
O -8.95146 -5.55573 6.08555
O 7.0155 -4.13824 -0.525028
O 9.87938 -2.73907 -3.23247
O 7.72861 10.4467 -7.04669
O -4.5301 -0.19979 -4.35064
O 3.02814 9.51635 7.57278
O -0.124984 -1.2847 -7.09154
O -3.654 1.82629 -5.65177
O 9.44588 1.7177 -3.93726
O 5.66275 -1.96341 -0.23286
O 1.79104 -4.1128 1.98723
O 7.93288 6.11552 -3.93453
O -1.02934 4.5171 6.47701
O 2.33876 -5.37111 4.35069
O -2.83139 -0.869218 5.74077
O -8.78976 6.14394 -4.78582
O 0.688348 2.79976 5.15262
O 2.04001 -9.77237 -3.84156
O 0.831444 3.98954 -0.0777527
O -4.96847 -2.51396 5.26928
O -7.16438 0.85504 8.57137
O 6.2932 0.658215 6.71204
O -6.17926 5.98016 -2.12917
O -8.30045 -10.333 -6.98408
O -0.159887 -5.71659 4.70217
O -2.549 7.38985 5.47581
O 4.65941 -6.11953 8.52429
O -3.7312 9.50644 -5.11557
O -9.34283 8.56049 -8.64554
O 2.65806 -5.01278 -6.90216
O 5.78904 5.25595 -5.12569
O -2.13492 -0.376607 -5.7096
O -7.00061 3.19355 -8.63161
O -6.59023 -10.4315 5.93782
O 0.863016 10.3589 -1.61027
O 0.760309 3.72118 -2.7088
O -9.93422 0.30494 -7.40356
O 5.45446 2.96104 2.14448
O 7.9702 -1.23782 -4.30593
O 4.15846 -2.79005 7.12545
O 5.53956 7.73594 -1.12948
O 9.90247 -7.74742 -8.83771
O -5.13636 0.0389753 4.99049
O -6.02434 -3.3996 2.56007
O -1.46775 -9.83117 7.32376
O -2.58573 8.84316 7.35278
O -2.06321 -7.15903 -0.232012
O 2.10858 -6.44497 9.14231
O 6.9495 -5.92035 -5.58005
O 7.35948 5.90381 6.06465
O -4.19083 9.62888 -7.61586
O -3.5444 -8.74914 3.60689
O -2.29152 -7.46817 -5.49574
O 0.0228323 -0.958348 -4.46315
O 8.11568 -6.09081 3.78918
O 9.02697 -3.67858 4.72476
O 0.852757 -5.69236 -9.86317
O -3.26585 2.05618 -0.208143
O -2.27894 -4.60161 4.0093
O 8.32265 -4.78686 1.58715
O 8.05132 10.4227 7.48492
O -1.56925 -3.26465 -8.1952
O -5.52025 1.48483 1.21741
O -8.80336 8.61343 -4.69778
O 5.40236 -7.91152 -5.39616
O 10.1882 2.01648 -1.36838
O -8.9517 9.84662 5.23669
O 0.688428 -9.73119 5.98303
O 1.30683 10.3767 3.70645
O -2.48999 -9.90843 -9.07252
O -1.26808 2.42521 -1.83255
O 7.87277 3.68422 -5.04357
O 10.3377 10.5021 -7.19495
O -1.50188 -2.51856 -2.59951
O 3.61914 6.92341 3.86633
O -8.64232 -4.98676 -7.76445
O 4.52256 -8.42798 1.23186
O 8.64035 6.61998 -1.4877
O 5.20166 8.92709 3.21983
O -9.29369 -9.61331 -9.17873
O -0.555016 -7.97611 -9.15402
O 6.39427 -1.27885 -6.42693
O 5.46603 -3.20518 -4.99716
O -1.79649 3.08557 -6.84061
O 9.00083 -8.33561 -6.51762
O -6.38254 -8.11325 -2.86739
O 8.15457 5.77132 -6.44489
O 8.1356 8.7271 -3.0836
O 9.21215 -0.266685 -2.26116
O -6.7972 8.07071 -3.54014
O -7.4208 2.79538 -3.85452
O -8.69214 5.448 -9.08608
O 8.24758 4.92194 8.22338
O 9.52108 2.2287 -6.4941
O 2.76741 8.62406 2.323
O -4.19849 -7.17367 -7.33454
O 1.32071 -6.55414 6.71498
O -9.75918 -0.968279 -5.09933
O -2.42548 0.915676 7.77769
O -3.33677 3.04165 6.5788
O -1.37893 0.108437 -0.424495
O 8.57722 0.173066 1.92834
O -9.52424 0.358168 -2.89391
O -8.38567 -7.30597 4.08276
O -8.13317 -7.40908 1.45882
O 6.70743 4.61424 3.84777
O -4.06879 -7.26735 1.53843
O -0.717687 -3.254 2.4373
O -5.83204 1.20887 -2.43278
O 5.69798 -2.76003 4.91441
O 2.91299 -8.25532 -5.83838
O -10.2819 -0.946917 1.15874
O 7.07214 -9.11508 5.43104
O -7.492 -2.31325 4.69706
O -7.06019 4.85326 0.701239
O -3.56787 8.99402 0.255369
O 10.2654 7.43801 -3.39981
O -5.82414 -4.06706 8.94537
O 5.29636 -3.62037 -2.39278
O -7.92639 2.46257 1.33759
O 4.77088 5.36825 -0.698333
O -8.23064 -0.703122 6.7058
O 0.491186 -3.71912 -6.69721
O 1.6493 7.08832 8.33118
O 7.57226 0.976508 -5.41738
O -2.31568 7.28801 -1.34149
O -2.13916 3.05931 4.13724
O 3.14349 -7.09819 -0.549108
O -4.312 5.85399 -3.88969
O 9.80563 -10.3327 -2.34275
O -1.35703 -9.2512 -6.98154
O -4.55551 7.32797 7.29259
O 0.406747 -6.36822 -0.248072
O -4.96472 -9.22753 -8.7931
O -3.97224 -4.12473 -9.10003
O 4.084 -3.72461 3.26928
O 8.84853 -7.30683 1.45589
O 5.8627 2.41868 4.81829
O 1.7364 -3.87896 -11.6194
O 7.35864 -9.79976 -2.72387
O -5.25307 3.62468 -2.68035
O -9.26053 2.94091 5.01267
O -8.86465 -9.09351 -2.50126
O -5.06287 6.74323 1.18508
O 10.3633 -5.94138 8.12364
O -9.46563 -5.90513 -0.319698
O -9.76893 0.0807985 8.67989
O 7.27575 -3.66531 -6.77702
O -8.1097 -6.94877 8.09821
O 9.4055 6.14545 0.93712
O 1.84263 8.6359 -7.74888
O -6.04667 -7.09664 6.40191
O -4.63631 2.48459 4.53981
O -6.21545 -4.88055 5.07317
O -10.0891 7.12125 2.77139
O -4.64748 1.96342 8.38497
O -10.4727 -5.19635 -2.86679
O 3.80313 -6.20971 2.42915
O -7.64242 0.398652 -4.66883
O -1.48738 -4.82335 -1.25536
O 9.5744 -4.27099 -0.594448
O -0.112639 1.20438 -6.04142
O -4.80473 8.06208 -1.81733
O 0.831198 3.67997 -5.93668
O 4.81541 -3.52597 -7.38777
O 1.57893 -10.2155 -6.46776
O -6.46872 2.18719 -6.31559
O -10.0777 -4.24292 -5.3128
O 8.99126 -0.939341 -6.58112
O -4.14211 -1.58016 3.25782
O 0.295395 -10.3383 -8.6807
O -6.17072 8.89717 -5.84888
O 7.53534 2.92383 6.73728
O 5.62233 -7.19136 6.44346
O 1.74765 5.77169 -1.55271
O 2.94083 -4.12838 8.86422
O -9.5586 7.54192 0.211846
O -5.69813 9.30429 1.66237
O 0.836063 7.71784 -2.97779
O 10.4057 -8.80084 -0.413592
O 5.48202 0.579514 0.907389
O 6.77991 -7.41859 -3.19909
O -5.37501 -3.59339 -4.58404
O -1.81522 -5.388 6.7059
O 8.78284 4.16797 -0.531914
O -6.2066 5.09818 5.83666
O 4.80356 -6.11183 -7.88908
O -2.60057 10.4386 5.10443
O -8.84528 -7.99712 -7.46748
O -7.30563 8.19672 -1.02845
O 3.46013 8.17531 -5.73355
O 4.61325 -9.74727 5.99057
O -6.35278 -8.59699 -6.73158
O -8.15846 4.50155 -6.85768
O 3.10605 7.95028 -1.63168
O 0.905501 -3.17085 -9.07713
O -8.51347 4.54927 6.87987
O -4.5997 -7.37354 -0.986426
O -7.04378 8.0619 6.15612
O -3.87488 4.91798 4.78258
O 5.41432 2.90506 -0.451561
O 0.715788 8.04732 -0.49354
O -1.53389 -5.28682 1.36424
O 3.09903 4.96205 8.37466
O 6.06079 8.87467 -5.8081
O -3.55194 8.15662 2.72197
O -7.59001 -9.70185 2.627
O 3.14156 -4.49132 -9.35557
O -7.08153 9.07695 3.69561
O 8.64734 -0.102337 7.75359
O 1.38098 -1.77633 3.11713
O 8.59954 -4.36946 -4.73336
O 8.59094 -9.82572 1.12967
O 8.47006 -2.3148 0.786519
O -6.8567 -3.1759 6.9234
O 8.22264 -1.12971 5.40208
O -1.45676 4.87949 -2.46053
O 10.035 7.41899 -5.86717
O 1.42128 4.92973 6.58748
O -1.4238 8.22359 -4.36611
O -3.74762 5.30839 -1.45713
O -6.28499 -1.63888 -6.53858
O -5.62508 -1.96353 -8.87864
O 0.523332 9.51502 7.82746
O -4.46762 2.70984 -7.78785
O -9.05626 2.07157 -5.87907
O 2.96254 5.03352 -4.58998
O 7.94287 8.02615 -7.53286
O 9.62998 -10.1971 5.5555
O -0.844156 -9.21501 3.91395
O 5.05022 4.14558 -2.96794
O -7.31884 2.99979 -1.16489
O -0.537806 1.26128 3.40743
O 10.2607 6.55546 -8.12479
O 8.98139 -8.08003 7.0209
O -4.37943 -6.46715 4.3603
O 4.68515 9.07116 -3.55791
O 4.43959 -10.3028 -5.68365
O -9.56316 2.88703 -8.25881
O 1.97362 7.86772 6.01784
O -4.67744 3.87515 1.27332
O -1.10799 3.01134 -4.40942
O 0.853953 -3.17883 -3.27688
O 1.30024 -7.88892 4.37562
O 9.52324 2.30191 8.21356
O -1.51597 5.18824 0.115337
O 9.56973 2.33317 1.16141
O 8.76264 -5.7215 6.24436
O -9.23082 10.0161 -0.877262
O -5.61212 -6.56261 8.82647
O 4.73771 7.11397 1.36517
O -6.06326 -7.71377 3.01335
O 9.41694 -1.72973 3.20152
O -6.40406 0.629157 -8.26868
O 5.02402 3.37785 7.08725
O -0.609129 -3.37442 5.859
O 7.74769 9.64617 3.1623
O -9.58978 3.91506 0.0370958
O -3.11988 -5.10424 8.91727
O 3.12733 3.63368 -1.47733
O -2.67735 -5.13673 -6.8913
O 3.21059 -3.99747 -3.85974
O 10.0234 4.05478 6.4484
O -8.15722 -8.38797 -4.95096
O -6.16936 5.67474 -5.67441
O -1.60192 -5.60383 -9.13412
O -4.36668 -5.9665 -5.05366
O 10.0892 1.41441 3.70706
O -0.91419 -3.67705 8.39739
O -5.06365 -1.1187 -1.84294
O 5.93314 -4.58921 6.89114
O -2.33015 -10.4598 2.25753
O -8.12594 9.27547 1.23085
O 5.48582 -8.4382 -1.22722
O 0.399166 -0.995883 -1.81219
O 5.14731 -8.07318 3.8675
O 1.4171 -2.58527 7.44087
O -7.65929 -1.81541 8.98315
O 3.0876 -10.3483 -8.4689
O -3.31537 -9.37919 0.0971285
O 0.28499 5.49887 4.36674
O 4.54685 6.60506 -3.28488
O -10.144 -1.82789 5.32231
O -1.30757 9.83988 -0.140908
O 1.09981 0.520114 0.340816
O -9.6876 5.69546 4.95313
O -4.9739 -2.10464 0.68222
O -5.43076 -5.58736 -2.70746
O -10.4678 1.00229 6.32567
O -2.862 9.42833 -2.61969
O 5.75323 5.70492 8.08378
O -6.46145 -6.80846 -8.44866
O 7.46501 -6.34139 8.28468
O -8.24232 -1.44611 -0.526971
O -7.52113 -5.08402 1.08045
O -8.31158 -4.77431 3.40526
O 6.37607 -6.6774 2.03847
O -8.18007 6.89337 -7.10436
O 6.65231 -1.95279 7.11917
O 8.92131 -10.3902 -4.77418
O 1.18615 -5.2371 -4.81145
O -4.34031 -0.182272 -7.04686
O 10.255 8.20747 4.91266
O -5.91972 5.21592 3.11461
O -6.32662 1.81854 6.36191
O -4.18184 7.25327 -6.20974
O -3.01694 1.91822 2.17246
O -7.77226 -0.0399572 1.63232
O -8.87799 0.193472 4.43935
O 6.88476 6.0201 0.340253
O -3.1635 -4.47311 -3.33933
O 0.213076 5.73042 1.84966
O 5.6131 9.58697 7.74866
O -4.75942 7.04613 4.39602
O -6.65795 1.55931 3.49894
O -8.34611 -2.63606 1.73999
O 0.495326 -1.89817 0.698142
O -6.77745 6.30872 8.01798
O -9.78842 -2.53624 -7.15812
O 0.361477 -6.1951 -7.39162
O 2.47061 0.375134 2.66788
O 6.88308 7.22975 3.88966
O 6.81933 9.12085 5.66582
O -6.5395 3.60813 8.17307
O 0.817192 8.23044 -5.45372
O -10.4804 -5.69238 4.2392
O -1.6166 -10.078 -4.49131
O 7.71497 2.26787 3.16229
O 1.34169 -8.06407 -2.02058
O -6.34413 -9.02701 8.12151
O 0.341455 5.9518 -4.63974
O 3.51831 -0.645547 0.613558
O 3.66204 -1.30778 4.28074
O -6.11567 9.14131 8.04899
O -8.67205 -6.78959 -9.65736
O 5.26717 -1.71429 2.32372
O 8.94669 -5.79939 -7.14905
O 3.16065 -9.4583 -1.15645
O 7.50188 -2.28048 -2.09704
O -0.82085 -1.2008 7.33119
O -3.18163 0.56922 -2.30882
O 5.00095 -8.76557 -7.81069
O 1.79678 -5.45003 -2.26256
O 5.58475 9.60552 -8.19668
O -3.64914 -3.25741 -1.23563
O -8.9555 -3.71971 -1.40557
O 9.39515 8.65464 1.40489
O -5.5676 -3.85405 -7.16336
O -0.857692 0.888956 5.9494
O -7.78886 -3.47531 -5.77815
O 5.06958 -5.65488 -4.06212
O 0.878998 9.95505 1.13136
O -1.84196 6.49918 3.31775
O -3.41493 -3.62223 1.97469
O -4.43781 9.67828 -10.2239
O -3.83081 4.50669 -6.0665
O 0.231691 -8.40327 -5.16481
