588
Atoms. Timestep: 1790001
Si 2.07995 -8.12366 -9.01952
O 1.93613 -8.74661 -10.6404
H 1.95413 -8.16214 -11.3891
Si -2.88145 6.85225 8.97023
O -2.02235 6.75231 10.4152
H -2.28293 6.06398 11.0159
Si -7.52757 1.43214 -9.57757
O -7.15881 0.708528 -11.0733
H -7.37637 -0.212506 -11.1562
Si 4.59411 -7.72724 8.7751
O 3.59478 -7.41061 10.1396
H 3.36042 -6.50586 10.31
Si 4.19204 -5.77867 -9.61554
O 4.19893 -5.72276 -11.2919
H 3.99766 -4.87263 -11.665
Si -8.453 4.42059 -9.91496
O -9.59838 4.56267 -11.1804
H -10.2939 5.203 -11.0867
Si 7.44253 -8.20302 10.0623
O 6.87313 -8.3098 11.695
H 6.61898 -9.15732 12.0408
Si -5.88655 7.16935 9.53362
O -6.51031 6.9732 11.0902
H -7.4133 7.24861 11.1963
Si 10.0141 7.71713 4.02599
Si -7.4379 -3.89141 2.89474
Si 6.78842 -9.10019 5.53168
Si 7.3283 9.15051 4.46794
Si -6.62554 -4.20938 -6.74201
Si 7.09509 -7.73212 -3.27396
Si 7.64957 6.39534 -6.44764
Si -9.65808 -7.5025 0.140617
Si -9.40587 -3.1364 -7.12079
Si -6.43165 6.48343 -8.89806
Si 10.2673 0.865536 6.70736
Si -2.97157 -7.94923 5.992
Si -9.62877 -10.3226 -5.92841
Si 5.89813 3.23745 1.17905
Si 8.43816 0.413074 -7.20276
Si -4.43225 -4.23047 8.0169
Si -6.14009 10.3711 5.70702
Si -9.93514 3.88502 6.61745
Si -1.14298 9.12251 0.114913
Si 5.06844 9.48113 2.72717
Si -7.43431 -2.48115 5.46127
Si 9.80553 -5.60033 -7.4673
Si 0.30978 0.367211 -6.43665
Si -2.46026 4.50315 -0.784368
Si -6.55098 1.19241 -4.44596
Si -4.51539 -3.09098 2.54379
Si -4.71439 -6.17282 -1.00415
Si -5.50867 -7.05413 -6.53983
Si -5.56156 10.3759 -3.34745
Si -8.21556 -8.62556 9.06202
Si 9.62425 1.54023 -0.757105
Si 2.88062 -7.96598 -1.87548
Si -0.3331 -7.47137 1.56707
Si -1.71201 9.37399 7.72376
Si 1.5997 5.28942 2.9258
Si 6.33076 -6.04409 1.93342
Si 4.41498 -2.98635 5.5991
Si 6.92114 7.77122 7.28121
Si 0.202584 -0.702333 -0.212429
Si -6.9904 -1.24528 -2.71123
Si -2.62092 10.4997 -8.05141
Si -0.895122 6.23087 1.34022
Si -5.90038 10.4023 8.97095
Si -1.22545 -9.42954 3.89653
Si -0.0372932 2.24123 -3.93407
Si 6.2295 7.76076 -4.19811
Si 8.62878 5.57461 5.89918
Si 4.74127 1.70447 -2.75301
Si -1.6222 -0.548047 2.15015
Si 4.66308 3.22626 -5.33296
Si 9.11505 10.4952 -9.70979
Si -9.7855 7.896 -1.52182
Si 0.222979 -8.48719 -4.92109
Si -1.23224 -2.12831 -2.62471
Si -5.25767 1.68251 -7.41095
Si -6.23919 4.27003 -4.01721
Si -6.26951 0.0958054 4.15483
Si 9.18489 3.86014 -3.04252
Si -6.65713 3.95678 2.79899
Si -9.40937 0.594217 3.89809
Si 3.34015 -10.1747 7.23487
Si -6.22249 -1.8489 8.09348
Si 1.36428 4.51894 5.85454
Si -4.26188 9.19099 -5.94897
Si -4.83722 6.29792 -1.98697
Si 8.96092 -0.469056 -4.36277
Si -9.12837 5.94247 -7.42539
Si 0.536677 8.97705 4.19031
Si -2.68529 -5.69593 -6.50479
Si 1.97507 1.53288 5.11029
Si -6.20623 -7.55361 -3.46746
Si -3.33637 -7.48476 1.18747
Si -3.79171 -2.87455 -6.64616
Si 3.32249 0.0724217 2.98594
Si 5.68615 -0.834857 -7.33084
Si 9.78622 -3.03624 0.148589
Si 8.88518 -9.05497 -1.06239
Si 7.13635 10.0203 0.655505
Si 7.08355 -2.92457 1.75678
Si -2.50134 -3.09712 0.539253
Si -5.5011 9.28648 -8.61843
Si 3.39852 -7.98846 -4.89427
Si -9.3469 4.42526 -4.6459
Si 10.2591 -7.22791 9.20909
Si -0.516222 -2.82838 5.97863
Si 1.60532 -4.94914 1.66481
Si 5.94608 7.68427 -1.1261
Si 1.40418 -3.43324 -3.44415
Si -9.9061 -5.24286 2.08756
Si -8.13463 7.96634 4.9898
Si 5.29761 -6.09099 -1.12776
Si -2.12315 -6.31666 8.38011
Si -3.1596 9.50068 4.94918
Si 2.80235 3.8056 0.600479
Si 9.61266 -4.38984 4.94065
Si -8.30411 -3.62618 -4.22572
Si 6.72672 0.921063 -0.565695
Si 4.44102 -0.0426251 5.85737
Si -1.39529 5.07801 6.80457
Si 7.92227 -10.4842 8.12344
Si 1.36014 7.40153 -3.43971
Si 1.1696 -9.82396 -0.0207913
Si 2.47848 -2.92878 -0.605667
Si 2.86846 6.75435 -0.679924
Si -9.69167 3.56706 3.43187
Si -9.95017 -8.56834 4.25384
Si -7.28477 -9.42166 -7.5726
Si -2.63458 0.487635 -3.56494
Si -9.54111 1.30714 -4.97371
Si 2.1429 -1.84292 -5.88449
Si -8.53086 5.43677 -0.322852
Si 7.27466 0.842839 5.77366
Si 2.37279 8.11392 -6.44146
Si -0.567134 9.60876 -4.00911
Si 7.18287 -10.3657 -4.78904
Si -9.03742 -1.43122 1.68947
Si 7.80239 3.24752 -5.85883
Si -0.908866 -7.97638 -7.701
Si 0.262081 -6.32061 -2.87506
Si -4.51338 -0.0829742 1.64409
Si 4.79463 -1.23327 0.544357
Si -9.80867 -4.60978 7.76821
Si 6.74661 -9.68468 -7.81546
Si -9.73802 -0.0700633 -7.87006
Si 3.73229 -10.1106 -7.16926
Si 1.35807 8.83131 7.26472
Si -4.49422 -6.42322 3.85686
Si -4.0554 1.6955 -0.958616
Si -10.417 -9.44772 7.182
Si 3.63769 -6.56997 3.56674
Si -2.78983 0.152245 -6.66806
Si 9.42382 -6.08845 -4.35111
Si -0.667816 8.44489 -6.99954
Si -9.00187 -6.29841 -2.72414
Si -8.93175 -10.0569 1.6089
Si 8.96575 -3.31158 -2.92093
Si -5.62778 3.48041 5.76559
Si 9.89444 8.3233 -7.53231
Si 4.61369 6.22953 -6.25942
Si -6.98088 -6.09595 7.57734
Si 1.91346 1.70825 -1.50432
Si -4.90001 -3.36007 -1.4818
Si 3.99839 5.6785 4.82863
Si -6.94242 -7.65462 4.8032
Si -1.65885 -5.73369 -0.483334
Si -3.36243 -3.61888 5.1111
Si 6.49961 3.70563 4.30984
Si 10.0461 10.0835 -3.2612
Si -7.4871 5.71771 7.11066
Si -6.10491 9.47738 1.44983
Si 9.92453 4.0248 0.911176
Si 5.88557 -0.830606 -4.14211
Si 6.79843 -6.52045 -7.89211
Si -4.82966 4.81323 -6.81606
Si -0.87146 5.10803 -3.55084
Si -5.16495 0.821019 6.97673
Si -9.26099 -1.65401 7.72279
Si -3.20258 -10.4741 2.01067
Si 5.01768 -5.29267 -5.5829
Si 3.20794 0.717842 -6.64566
Si 4.05289 -3.28386 -7.86448
Si 5.75635 -3.66914 -2.82629
Si 7.48472 -2.22563 4.79555
Si -10.1058 -8.44108 -8.20542
Si 0.670768 -4.94429 8.05854
Si 4.12758 7.8843 6.85076
Si -0.812597 0.0271605 5.192
Si -6.61144 3.06841 -0.186151
Si -3.14585 -4.093 -3.88444
Si -2.5899 6.52827 -5.75454
Si -2.75688 2.33438 6.30865
Si -8.45932 0.497388 -0.438082
Si 3.3012 -5.67088 6.66499
Si 3.88134 -9.22847 4.58229
Si -3.16641 -9.16206 8.76526
Si -3.12771 9.0203 -2.35919
Si -7.05295 6.69266 2.2502
Si 9.92268 8.65502 1.1492
Si 7.60872 5.11864 -0.554938
Si -6.83009 8.58817 -1.36539
Si 1.93188 -2.66955 3.75515
Si -1.94772 6.92639 4.26242
Si 8.38555 -6.98932 4.05672
Si 2.37509 8.77553 1.62056
O 7.36606 -10.2026 -6.37619
O -6.45008 -2.5629 6.7013
O 4.19484 -1.55313 6.30179
O 3.18736 0.936631 5.98388
O -7.92142 -3.59882 -7.50096
O 2.09613 4.05416 2.0345
O -9.30412 -3.32137 -5.46338
O -5.67578 -0.393248 7.82375
O 2.75361 -9.2764 -8.10407
O 6.39046 3.63124 2.7091
O -6.0601 2.65625 -3.92924
O -5.93154 8.76932 9.24277
O -9.48495 0.628793 -6.44217
O -5.27257 0.341791 5.42147
O 6.13454 -6.04561 -6.4998
O -4.0151 3.19886 5.72054
O 4.36946 10.4538 3.8356
O -4.91481 3.24787 -7.16574
O 4.29278 3.2308 0.958529
O 7.5236 -7.01274 2.61997
O 5.3524 7.43519 7.71335
O -9.90964 -10.3293 -4.30536
O -4.35217 -4.10075 -2.8294
O -10.0874 9.86648 1.21362
O -2.02252 9.67697 1.32367
O -1.98591 -3.53387 -2.93703
O 8.7443 4.91009 0.499428
O 1.07098 2.22034 -2.79804
O 2.33666 -1.18293 3.20889
O -7.96539 6.24706 0.960202
O -6.10972 9.42125 -0.154693
O 2.19821 -4.27301 0.287521
O 7.62628 4.5763 5.06906
O -9.49261 -9.50353 3.04427
O -7.6571 1.84187 -0.241379
O 1.78866 -5.66158 7.06485
O 7.5982 -10.2619 -9.03689
O 6.45483 4.20046 0.0321539
O 6.94909 8.57495 5.88675
O 8.40696 1.93473 -6.54981
O -10.4127 -4.24835 -7.55476
O -6.24866 4.8434 6.38592
O 1.69059 0.780967 -7.20646
O -9.67684 2.91831 -5.14758
O 6.40501 9.07039 -0.406769
O 10.4385 4.64965 -3.59953
O -10.103 2.33456 7.01721
O -5.52123 0.440135 2.78199
O -6.80907 -6.73458 6.13805
O 10.2048 7.73372 2.45994
O 3.82432 -2.14473 -0.269641
O -7.79602 -1.56538 8.45638
O -10.4789 -4.57027 3.5039
O 9.72948 0.240157 -8.20437
O 5.85052 -1.10113 -5.67917
O 5.65665 -2.29406 1.41705
O -8.73488 0.591913 -8.91232
O -8.70778 -1.97084 6.13474
O 10.1889 7.95453 -0.319822
O 10.4962 -4.69754 6.23817
O -1.17223 -0.534824 3.70442
O -2.07813 -0.991195 -3.33074
O 8.8512 -7.39791 9.8502
O 8.63702 1.1633 6.56976
O 3.42153 -6.21494 5.08906
O -1.20309 0.381372 -6.93662
O -6.15785 5.46017 2.715
O -4.03052 -7.47843 4.96757
O 5.88168 -0.360378 -0.322542
O 3.56364 -8.3085 -3.24198
O -0.437877 3.73003 -4.19166
O -4.73243 -1.66308 1.74491
O -6.74796 -1.3818 4.49758
O 9.32967 -4.61249 -3.71797
O 1.97274 10.2882 1.11407
O 9.48348 -10.4579 7.67378
O 5.39923 -2.12731 -3.34205
O 2.26989 7.76161 0.435831
O -3.76104 5.44476 -1.00491
O -2.05548 9.36165 -3.46567
O 5.30083 -8.80206 5.21073
O -5.3958 5.58919 -8.09472
O 7.37059 -3.53904 -2.63434
O 4.43363 0.149324 -7.47414
O -1.82127 1.19898 5.55002
O 6.53866 1.74604 0.886079
O -0.104426 10.4344 3.94459
O 6.84644 -8.09386 -7.91498
O -5.33658 -6.92023 -2.24903
O 0.650477 -1.21279 -6.09426
O 9.63462 4.67151 6.77194
O -8.0931 -10.0988 -6.36382
O -7.89564 4.52237 -3.97626
O 8.76105 8.68991 4.26953
O -1.83325 3.50819 6.85194
O -3.86823 -3.663 6.61587
O -9.73165 3.93527 4.99349
O -8.35225 -5.00458 2.17006
O 5.27171 -2.25644 -8.06582
O -1.81958 6.44808 2.69141
O 5.60905 -6.06811 -8.92838
O 4.19075 -6.66441 7.61958
O 6.03573 1.7875 -1.75209
O -2.24808 8.98927 -1.01948
O 8.78633 -0.596453 -5.94953
O -7.75529 -0.420869 -1.54693
O -8.75089 4.7785 7.21931
O -5.05843 9.87898 -4.75292
O -0.879646 -1.27626 6.20187
O 0.921067 5.06284 4.34026
O -6.09101 7.08696 -1.35074
O -3.42722 5.34803 -6.37309
O -3.65087 1.32846 7.23584
O -2.00636 5.84282 -4.43785
O -4.46334 -9.91442 9.27591
O -1.44091 9.39162 -8.03039
O -8.14333 1.15642 -4.28736
O 7.44391 -0.27644 -3.79346
O -8.84107 -8.88716 0.473378
O 9.5102 2.6856 -1.98562
O -6.13687 3.4594 4.25685
O 8.02433 4.78015 -6.44811
O 8.50314 10.2266 -3.98152
O -2.70336 8.30325 8.29277
O -6.26483 7.95595 1.85686
O 0.516734 5.87075 1.9565
O -5.94932 -2.27516 -1.96073
O 6.87723 -4.54569 2.00666
O 1.75331 -8.09665 -5.09138
O -6.20736 -0.172292 -3.64447
O 4.50799 2.99638 -3.74754
O -7.48288 -7.34637 8.48648
O 10.2142 4.14799 2.44934
O 8.10333 -6.92752 -4.15645
O 6.64722 -9.06396 -4.05406
O -9.49567 -8.00662 9.82984
O 2.3428 -3.29459 -2.15448
O -9.74143 1.99455 3.38139
O 2.73273 -5.82004 2.51901
O 9.58383 2.5323 0.470746
O 2.21669 -2.94025 -4.76569
O -9.23893 4.70393 -8.50851
O -9.60671 -1.65049 -7.62756
O 9.79289 -10.1619 -1.90777
O -10.4073 -5.65227 8.81673
O -1.91096 -1.93586 1.42397
O 1.63286 -7.02634 -2.28293
O -2.95687 2.89976 -0.601347
O -4.66524 10.0295 1.85579
O 0.0520663 -3.7783 7.08693
O 9.20907 -1.91647 -3.64958
O 2.89752 -0.491516 -5.55019
O -8.99843 -9.47825 7.91196
O -2.44321 -6.65005 6.78963
O 3.38329 -3.07298 4.36853
O 3.7358 2.10083 -6.04613
O 7.82397 -9.73349 -0.077528
O 9.92286 -8.11804 -0.374254
O -7.7917 6.91676 6.10684
O -4.00499 -6.61779 -6.82441
O -10.1393 7.05915 -7.79282
O 0.0162967 -9.92263 -4.13691
O -1.42268 7.03871 -6.73523
O 0.404999 -6.01104 1.55567
O 1.29712 8.92253 5.59237
O -10.2631 -9.08867 -6.70541
O -2.70409 -10.3485 3.57586
O 3.05195 -6.83558 -9.14992
O 10.1656 -7.98428 7.75543
O -9.96519 0.769481 -0.8601
O 2.56515 1.33905 3.62475
O 2.5815 7.78266 7.3901
O -1.52237 -4.26795 0.112032
O -7.03744 -4.14167 -5.11191
O 3.40908 1.42803 -1.90838
O 9.371 10.2623 -11.1787
O -7.59298 -3.7833 4.52171
O -1.54527 4.76577 -2.12298
O 5.16086 4.54882 4.66283
O -0.845911 -8.30167 2.81326
O 4.15733 9.48203 6.85043
O 2.87051 5.26756 -0.113205
O -9.16863 6.36324 -1.49599
O 0.856172 -2.65862 4.98232
O -6.28718 1.45719 -8.62129
O -9.73047 4.49612 0.127474
O -10.4512 -6.87799 -8.14986
O -2.68118 -5.3071 -4.90741
O -8.42483 8.65261 -1.06373
O -3.95244 -2.71147 3.92894
O 2.78556 -2.32223 -7.32203
O -8.28412 4.00349 2.82244
O 6.01606 -6.77006 -2.42956
O 1.02284 0.480124 -0.977883
O -10.2786 -9.35997 5.63623
O -8.47806 -8.71596 -8.35104
O 6.82373 2.18239 4.937
O 9.5964 9.16078 -8.8641
O 0.342585 6.14949 -3.48911
O 6.20129 3.04652 -5.72525
O -3.4529 -3.95463 1.67091
O 8.80596 -3.01206 5.24246
O 8.29304 -2.73624 0.721041
O -5.65823 -5.30043 7.88076
O -8.5286 -7.7154 4.41392
O -4.53938 0.605891 0.14726
O 3.88535 8.71421 2.1188
O -1.76601 -3.48926 5.19671
O -2.0477 -9.05377 -8.31526
O 4.23867 4.66814 -5.90417
O -0.70538 7.66651 0.573139
O 7.48419 -2.25537 3.17535
O -3.57799 -6.82947 2.61481
O -2.67084 -7.69085 9.06856
O 8.29318 0.681109 -0.809027
O 9.70355 -3.27535 -1.40975
O -10.3081 -6.70776 -3.50687
O -5.47028 -4.71137 -0.730356
O 0.633755 -4.82539 -3.40806
O 7.70216 -9.68769 9.50076
O -0.593273 -6.10394 -1.53082
O -3.54226 0.958623 -2.25624
O -6.00185 1.14486 -6.00402
O -6.78857 6.40867 8.37904
O 8.431 9.1855 1.26329
O 7.48145 6.89066 -4.89192
O -0.587126 -5.86235 8.43118
O -6.61387 10.3754 -8.47491
O -6.05669 -6.8486 3.70191
O 5.89431 -6.16914 0.409687
O -4.5527 -7.14682 0.253665
O 2.89323 5.10716 5.93819
O 4.43297 -4.23756 -6.64563
O 4.36052 7.1053 5.46505
O -1.74925 -6.92841 0.760218
O -6.13711 -8.35664 -7.15187
O -1.78951 5.87661 5.39669
O -0.697711 7.97158 4.27466
O 3.93008 -9.0771 -5.89555
O 7.5685 -7.82118 5.18726
O -5.1973 8.78816 -7.15068
O -6.1196 -9.15507 -3.28286
O 0.251151 -2.36085 -3.12967
O 2.90076 -9.47647 5.79852
O -5.14652 -2.93033 8.71886
O 0.347304 1.31582 -5.11703
O -6.57896 -9.16037 5.15209
O 0.232799 5.06205 6.79302
O -4.64322 9.92088 5.20365
O -1.477 5.05943 0.402281
O 0.935695 8.20213 -7.24812
O 4.06301 -9.13092 8.14305
O -9.56028 -0.651341 2.93238
O 5.43181 -4.58046 -4.16799
O 8.52826 -5.54042 4.56861
O -3.27368 10.3516 -6.57032
O -7.47168 10.2405 1.81581
O -10.0886 -0.307813 7.66256
O -10.3568 9.34826 -6.53612
O -6.62939 9.36414 -2.73814
O -8.19411 -2.59757 2.23999
O -3.93305 7.57569 -2.4906
O -1.76122 -8.68148 5.16962
O -5.88536 -3.84081 2.57059
O 3.95246 -7.00664 -1.09029
O 9.94075 -9.29731 -9.08251
O 10.2115 0.588064 -4.28288
O 2.12803 -9.32303 -1.19147
O -6.0993 10.3894 7.28538
O -7.05592 -9.69597 9.56188
O -3.55169 -3.05009 -5.03253
O -0.982941 -1.46755 -1.13161
O -7.73504 -7.02376 -3.2657
O -2.95681 -4.1869 -7.14097
O 6.05473 -2.85134 5.21515
O 7.01397 -9.76862 6.98134
O -10.1863 -1.89608 0.596946
O 3.9754 -6.50344 -5.10543
O -9.07035 -6.63777 -1.12296
O -5.72775 -7.17371 -4.919
O 5.95821 10.3409 1.6943
O 0.487579 8.70603 -3.14188
O 7.04679 6.60531 -0.656789
O -3.08446 -9.05306 1.32684
O -6.35444 -5.75513 -7.07156
O -7.94623 2.96143 -9.78909
O -3.82042 0.991841 -7.49552
O -5.41823 2.57786 -1.14284
O -2.98231 0.269438 2.00873
O 9.52714 6.35447 4.78758
O 8.06344 -8.24238 -2.07331
O -1.95871 -10.26 8.52807
O 1.99947 10.1783 7.90393
O 3.72619 -4.30591 -9.07851
O -3.17248 -5.10238 8.58377
O -8.77722 -4.73011 -3.20574
O 1.27809 -1.94024 -0.223152
O -1.33263 1.45046 -3.40702
O -7.25358 5.44253 -9.91178
O 6.97868 -0.0294125 -7.75264
O 4.03397 -4.25154 6.55961
O -5.46112 5.23427 -2.98689
O 8.12757 4.71787 -2.06478
O 0.656949 0.595564 5.2107
O -10.2644 0.409094 5.22264
O -0.631218 9.11094 -5.53736
O 6.21983 8.67433 3.41417
O -3.96208 9.92953 -8.86862
O -7.85387 7.1865 3.60881
O -0.499616 -8.60035 -6.28325
O 8.38593 3.31484 -4.2762
O -4.28318 10.1201 -2.34906
O -9.37174 5.41631 -5.8991
O -2.21465 5.85187 7.90778
O -3.0967 0.481862 -5.08781
O 3.11592 9.52229 -6.56719
O -6.04531 2.25829 6.75634
O -5.89505 7.87436 -9.34405
O 1.51286 2.94127 5.60388
O 0.50359 -7.79514 -8.48551
O 5.12599 -6.35622 2.96098
O 5.1552 -4.5673 -1.65051
O -9.93148 -6.65407 1.49069
O -3.08199 -5.88333 -1.06672
O -8.33724 -0.288304 0.878699
O 4.11507 -0.185982 1.58262
O -2.20295 9.65594 6.19522
O 5.21883 -10.1338 -7.78243
O 6.07784 6.44925 -6.90653
O 4.45182 7.18222 -0.817852
O -9.87945 -3.03514 8.12474
O 2.26285 7.00601 -2.15765
O -0.406246 -0.192405 1.15382
O 3.41421 7.01639 -6.93519
O 3.04033 5.88007 3.4491
O -0.328866 -7.34481 -3.93849
O -7.72671 0.79746 4.23487
O -3.09539 8.03074 4.43735
O -6.24773 3.18434 1.40956
O -3.60031 -2.83309 -0.554747
O 8.24618 -5.8165 -8.03038
O -3.28824 -1.42614 -6.9537
O -5.75823 4.88559 -5.44022
O 8.60532 7.50674 -6.96089
O -5.31733 -3.30359 -6.96327
O -7.2539 9.32502 5.14801
O 9.86127 -7.61327 3.92434
O -7.91461 -2.24847 -3.55351
O -0.227008 8.83067 7.57997
O 1.99309 2.88745 -0.380921
O 6.12659 -7.74431 9.22644
O 4.99375 0.398364 -3.67211
O 4.42161 -0.161462 4.20353
O -0.0443262 10.1405 -0.308828
O 4.92123 6.9443 -4.8212
O 2.00071 7.72226 -4.89704
O -8.25189 -5.0336 7.63204
O -10.4312 8.61874 -2.80032
O -7.31039 4.40458 -0.656907
O 7.26537 -10.2349 4.50773
O 3.35143 -8.1766 3.47117
O 7.83143 6.55634 6.89551
O 5.8331 0.485766 6.43258
O 6.25384 9.33276 -4.67825
O 9.77624 -5.88956 -5.88619
O 6.12268 7.78964 -2.65646
O 7.49951 8.91618 8.27005
O 10.3234 -4.32314 0.976054
O 0.472724 -8.51194 0.672275
O -9.70922 8.35595 4.85416
O -7.66183 6.5726 -7.8296
O 7.5593 -0.642331 5.17988
O 1.42555 8.56838 2.9637
O -3.56283 -8.86777 7.15845
O -3.50134 7.84987 -5.55403
O 1.4071 -4.35322 9.24744
O -1.49285 -6.52754 -7.21427
O -4.02121 -5.02702 4.48769
O -4.42258 6.6472 9.30102
O 1.44231 -3.70345 2.62075
