585
Atoms. Timestep: 1790001
Si -5.23343 4.37743 10.1082
O -5.77377 4.59203 11.6881
H -6.67618 4.88862 11.7019
Si 8.44912 -3.70926 9.53078
O 8.07085 -4.27108 11.0528
H 7.40974 -4.95164 11.1005
Si -4.12677 7.59976 8.40278
O -4.69106 6.64157 9.72738
H -5.10021 7.18274 10.3924
Si 10.3993 -1.43284 8.74805
O 9.87631 0.121447 9.16672
H 8.94083 0.260982 9.07786
Si 3.102 10.4 8.50001
O 3.44433 9.44166 9.90076
H 2.79334 9.4496 10.5926
Si 4.76324 -8.06622 8.55642
O 5.02005 -7.41069 10.1496
H 4.34315 -7.49793 10.8105
Si 6.15314 7.64241 -8.46863
Si 4.83328 9.69243 -8.45797
Si 1.97966 0.497439 -2.22471
Si -2.95098 7.53684 3.22825
Si -1.04632 7.12608 7.85358
Si -6.60283 -5.6836 3.12087
Si -0.749528 -0.0689782 -1.17508
Si -4.35059 5.83732 -5.36728
Si 3.28797 1.84338 0.124963
Si 8.32891 0.0603606 -4.35069
Si -1.72004 -9.46889 5.90037
Si -9.57903 -6.93952 -3.38342
Si -4.30741 3.22197 -1.51627
Si 4.29413 10.1009 -3.76307
Si -5.95906 7.62636 -1.64162
Si -2.32997 -7.88982 -1.85472
Si -5.34518 10.2647 7.46954
Si -6.03806 -5.788 6.19883
Si 8.89593 5.0062 -5.98938
Si -7.83234 9.29778 5.75939
Si 1.99834 -2.9909 2.25574
Si -0.579469 2.34741 -8.21701
Si -2.98966 3.75158 -8.52016
Si 6.89932 5.77505 -0.927624
Si -1.42889 0.0845782 8.65191
Si -4.83692 -0.461834 -6.41518
Si 5.63045 3.67612 1.08863
Si -5.71597 -3.25933 -6.20558
Si -9.8352 3.12439 6.23495
Si 5.53782 6.6678 4.88199
Si -10.0575 8.80262 1.53409
Si 0.222066 9.75997 7.59028
Si 0.862483 -4.02763 -4.4472
Si 8.12783 1.96505 1.73713
Si 5.02051 3.73891 6.07107
Si 3.59256 -6.98284 -1.46882
Si 8.46079 5.76808 4.04314
Si 3.88911 -1.23901 6.79048
Si 6.60385 -6.89032 4.32739
Si 5.39946 -2.98663 -7.76341
Si 0.196662 -7.22695 4.77206
Si 6.41132 -9.15394 -5.23696
Si 0.927889 4.37726 -4.34397
Si 3.27911 -5.81274 -4.44151
Si 4.8616 0.805844 4.69258
Si -10.1013 5.80197 -8.19779
Si -4.78134 -1.41908 -0.923626
Si 2.65737 7.30967 0.143261
Si -4.1188 -7.968 7.36438
Si -6.99851 8.11577 1.17708
Si 4.09114 -0.649901 1.97317
Si 5.73003 4.95713 -6.72224
Si -8.71382 8.11262 -6.33726
Si 0.731247 -5.39942 7.18938
Si 10.4657 8.22157 4.65576
Si 8.41538 -0.507989 0.20732
Si 0.543481 6.04524 -1.74948
Si -8.25278 -4.39736 0.995984
Si 2.63213 8.97906 -6.33318
Si 3.28395 -3.7038 4.78023
Si 6.83093 -2.40957 1.79663
Si -0.740531 4.15517 7.47729
Si 0.482586 2.71336 1.32819
Si 8.88775 -8.32724 2.68345
Si 9.76629 4.84514 -1.5954
Si -5.08418 9.05295 -8.50854
Si -2.85972 3.7538 5.23591
Si 4.77884 -9.36005 3.56449
Si -3.54514 4.82346 2.36788
Si -6.67292 0.283666 2.88959
Si -7.91492 -2.95492 -4.02308
Si -6.12721 -0.209555 -3.54341
Si 9.2224 -10.067 5.28698
Si -0.332228 -2.66297 6.05963
Si 9.99929 2.77394 -3.96446
Si -8.88846 -6.31419 6.62075
Si -8.81917 4.52717 3.61952
Si -0.332363 7.99672 -6.61095
Si -8.43339 1.81615 -2.93852
Si -2.33136 -5.51545 7.70697
Si -6.46623 3.36344 1.95577
Si -0.708436 8.38374 -3.56288
Si -7.81201 10.321 -8.48338
Si -2.29855 0.849363 5.58243
Si 10.1222 -4.8341 4.98159
Si -4.69837 -0.661708 5.04517
Si -0.668397 4.87499 -6.76463
Si -4.47215 8.88214 -5.46428
Si 8.92372 9.48364 -2.89335
Si -0.789245 -1.84429 1.52227
Si -5.55226 -10.2154 2.18403
Si -1.64058 4.437 -0.239319
Si 10.0871 -5.78754 1.9079
Si -2.50777 10.0499 -7.35504
Si -0.419529 6.84508 4.78209
Si -7.5509 -1.08985 7.92769
Si 9.3303 -6.12495 7.63577
Si -5.45105 10.4004 -2.78439
Si -5.48713 2.26077 -7.10788
Si -0.303575 -9.53768 -3.56589
Si 9.80087 4.41681 1.56151
Si 6.181 -0.271922 -6.6069
Si 3.62951 -2.02266 -2.16282
Si -8.96767 9.51799 -2.45155
Si 7.41618 -4.96944 0.344457
Si 6.35163 -7.63768 -0.59071
Si 9.15237 8.12207 -8.77556
Si 1.93923 0.863526 -8.08297
Si -7.37025 -5.24549 -1.89219
Si -3.89503 9.79969 4.72841
Si 9.39621 8.01286 -5.52077
Si -1.85781 -4.88092 4.56839
Si 6.41807 -6.14255 -4.95913
Si -3.32674 1.01079 0.336647
Si 4.86957 -8.41792 -7.97676
Si 6.54876 -1.36018 -2.20436
Si -1.3772 0.832362 2.77547
Si -7.38938 5.8441 -4.96568
Si -4.60954 -6.19815 -3.17808
Si -8.07554 -8.37252 2.29428
Si -4.94356 -6.14033 -6.42816
Si -0.784931 -8.6073 -6.52753
Si 1.44408 9.17494 4.66337
Si 10.0965 -2.44388 -3.45197
Si -3.80316 2.98847 -4.5727
Si -8.62315 6.37377 -2.28086
Si -5.37706 -2.93272 6.85187
Si 4.03531 -2.07031 -5.33706
Si -9.81669 -0.42189 -1.19905
Si -9.06074 -9.07961 5.10789
Si -7.61884 -9.33227 -3.97088
Si 6.27119 -3.77433 4.51326
Si 3.68363 -5.31698 7.34345
Si 3.45255 6.25517 -5.0136
Si -7.18638 -8.15919 -6.76469
Si 4.61423 7.37795 -2.34803
Si -2.65736 -2.57432 8.33312
Si -9.5534 -9.61066 -0.042092
Si -7.49923 4.46515 -7.85919
Si -5.61107 1.0464 7.65938
Si 4.28987 9.3632 5.70807
Si 2.07373 -7.38798 -7.0008
Si -7.29178 3.94546 -0.865399
Si -0.537013 -5.2265 -1.9864
Si 4.46728 2.19827 -7.14355
Si 2.47718 -2.18378 -7.82758
Si -3.09457 -8.64398 1.17529
Si 9.90456 -1.73132 5.57558
Si 7.92671 0.461445 4.50843
Si 6.73141 -9.98542 1.23106
Si -1.89201 9.65864 1.08719
Si -0.876229 -1.56912 -3.94569
Si 9.22911 -9.26581 -6.40763
Si -7.12056 3.73617 7.72227
Si 0.584094 -4.69824 -7.56109
Si 6.74257 -5.8427 -8.09456
Si 9.18725 -7.38621 -8.58744
Si 8.10607 3.23241 6.043
Si -2.01602 -5.69228 -6.74601
Si 9.13656 -8.47589 -1.96956
Si 6.0559 -3.19571 7.5645
Si 7.36765 -8.33539 7.01695
Si 2.28913 1.61379 -5.08961
Si -3.22185 8.89235 -1.70547
Si -9.9874 -6.88915 -6.17009
Si 8.256 8.39603 -0.0139948
Si 1.33126 4.28875 3.92603
Si -5.23026 5.66712 6.21108
Si 2.07844 -9.47366 -1.99679
Si 1.78874 -9.22454 2.86653
Si -8.7937 0.271721 5.27903
Si 10.3437 -10.0876 -9.0574
Si -7.56881 -1.54724 0.537493
Si -2.69167 -3.63961 -0.147088
Si -2.06568 0.699208 -5.84746
Si 1.1574 -0.215363 7.18646
Si 3.846 5.77334 2.6535
Si 7.66953 -4.24712 -2.74611
Si 1.96655 2.82621 6.56903
Si 2.31971 -4.48752 -0.528066
Si -3.12034 -3.814 -4.41227
Si -4.87572 5.91064 -8.51165
Si -6.95892 6.86962 3.9932
Si 1.1454 9.95114 0.500489
Si -3.62272 -5.72008 2.07882
Si -2.96331 2.49786 9.00887
O 5.08187 8.40485 -9.4543
O -9.78574 -6.20664 -4.74669
O -0.639767 5.62718 8.08685
O -5.29492 8.84655 -6.91638
O 1.28523 -9.7451 1.45135
O 0.5071 -2.51088 2.11805
O -10.328 6.0036 -2.18622
O 8.02828 1.69409 5.5794
O -6.82316 -9.32126 2.55624
O -4.03066 4.62402 6.03315
O 9.86652 3.42676 -2.42365
O -0.762758 -9.23743 -5.02754
O 8.30792 1.03573 3.08283
O 7.8177 -7.43347 3.43071
O -2.14636 -2.64022 -4.09833
O 8.04224 -6.23385 -8.87108
O -1.7211 2.92225 -9.18143
O -3.45622 -6.20647 -7.10665
O 7.06203 -0.237399 -3.30144
O -0.415555 4.62394 -5.16454
O 5.19127 -1.894 7.55013
O 9.4834 9.58983 -9.42306
O -8.515 -2.80624 0.785608
O -8.09515 5.29651 -1.12688
O -9.13934 -10.3945 -9.32145
O 4.84876 5.51694 -5.50643
O 0.410452 -1.22927 6.20464
O -4.33148 7.74631 -1.71958
O -7.05487 8.2628 4.80932
O 7.06883 6.4277 4.4767
O -8.67146 3.50522 7.36102
O -7.07942 -8.94577 -5.40152
O -8.79343 -10.4282 -1.21606
O 5.84337 6.23849 -7.76393
O -0.191936 1.43104 1.95976
O 2.55282 -0.950696 7.60554
O 9.15767 8.26274 -7.13351
O -3.76806 6.41669 2.50449
O 6.62136 -3.7612 0.953838
O 1.44537 -6.065 -7.69609
O 8.68009 8.79299 -4.3272
O -2.42828 10.512 4.90292
O 0.422319 -2.50214 -4.13201
O -2.96018 4.12332 3.70275
O 9.30228 -1.22619 -4.14768
O 7.33672 9.62811 0.669369
O -0.970411 -5.07549 -7.69263
O 3.2773 -10.2755 -2.72442
O 3.48301 9.53828 -7.55353
O -2.0749 -9.76209 1.47758
O -1.78246 0.573967 7.11473
O 0.549292 0.775466 -1.60392
O -0.135202 9.88429 -3.4476
O 0.129892 3.7055 -7.53242
O -8.48 -0.585825 -0.357732
O -9.88224 4.4321 2.39851
O -2.71533 1.29571 1.83597
O -2.5949 -4.16374 8.60159
O -7.4956 -3.90098 -2.82003
O -2.07718 0.745291 -0.658945
O -2.90336 -8.56655 6.49783
O 7.94075 -9.77508 -5.62701
O -5.37069 -1.8802 -6.89836
O -8.36899 6.04942 4.02189
O -3.38153 -4.88131 0.698955
O 7.31591 4.69738 -6.25411
O -4.95658 4.01382 2.07113
O 6.93311 -5.81174 -6.46098
O -10.2877 -1.71145 -2.08838
O -3.73426 4.98916 -9.16696
O 3.8251 9.75808 7.19981
O 3.69601 -9.17037 8.79707
O 5.44112 -9.97594 -4.31534
O -8.32417 9.25413 -7.36506
O -1.92044 3.35605 8.24092
O 3.27491 6.57236 1.43322
O 6.6112 -6.42443 0.426962
O -1.70864 -9.55584 -7.41281
O -1.70381 6.75866 3.8289
O -10.0957 8.65208 3.12263
O -7.45497 -6.90541 2.56605
O -3.89677 3.63885 9.75577
O 5.98619 8.94773 -7.54117
O -9.31042 8.5263 5.73543
O -9.54217 -5.2287 1.26954
O 6.348 0.284559 4.51918
O 9.93101 -0.19997 -0.173703
O 0.168419 7.28732 -2.71633
O -0.693331 -5.77862 7.85494
O 3.09928 7.4024 -6.09025
O 3.83937 -2.1622 -3.78087
O -6.4562 -5.72654 4.68415
O 9.47677 3.8683 -5.05451
O -0.782451 7.88835 -5.06844
O 1.71025 0.971837 -6.43077
O -5.24187 -4.4642 6.6156
O -2.81836 3.9431 -1.20125
O -0.0955341 -4.83364 -3.43087
O -2.41212 8.75587 2.31548
O -10.0539 -6.39346 7.74444
O 3.40039 -5.00852 5.72976
O 5.03964 -1.36767 -1.7256
O 3.37113 1.60855 -8.21459
O 9.84075 -3.26457 5.1683
O -2.41515 -5.23114 6.08813
O 10.2872 -8.83928 -0.867136
O 3.34486 -8.01049 -7.64208
O -0.360731 9.44509 0.700751
O 5.15144 -7.34333 -1.49515
O -4.89486 7.49469 -8.97028
O 2.98894 8.83926 4.92482
O 0.56073 -4.31125 -5.98555
O 4.20144 0.0475624 5.93958
O -1.32497 1.15518 4.35048
O -3.63859 8.26292 4.46102
O -1.47114 -9.05414 -2.5344
O 5.66731 -7.05213 -8.41513
O -7.12158 -3.21157 -5.41807
O -1.3087 1.53056 -7.10277
O 9.3386 2.90376 1.50584
O -1.27424 -7.12607 -6.44398
O -5.09852 -5.89122 2.56407
O -5.71696 3.91013 -1.24589
O 8.3799 8.83814 -1.56192
O 9.62386 3.384 6.75443
O 2.4994 -6.74783 -5.54201
O 3.30937 -6.52331 -3.01187
O -4.82885 6.84831 7.17576
O 6.1004 -8.61403 7.93803
O -1.41501 8.84067 -7.51092
O 8.41638 4.2938 4.85048
O 8.70426 -0.777822 5.08593
O 1.06263 8.82855 -6.53586
O -0.996335 -10.2419 7.14903
O 1.62175 6.43545 -0.625608
O -7.26744 3.62687 0.658306
O -2.09095 1.23349 9.5749
O -5.86574 5.48348 -4.81543
O -7.49681 -9.25801 -7.86115
O 6.98295 -2.9071 3.32039
O -5.18207 -0.636295 -2.32179
O 3.07176 -3.34783 -1.36918
O -9.62607 1.58282 5.78996
O 1.48914 10.35 8.39314
O -5.00687 -9.27927 7.9165
O -7.76654 0.488566 4.06981
O -4.5537 -9.3412 1.3261
O 2.06949 8.66521 0.656898
O -7.26937 -1.46957 -3.61914
O -8.04777 -10.2554 5.14519
O -2.66687 9.20379 -0.242424
O 1.35568 10.493 3.77676
O -9.42174 -5.21325 5.52602
O 10.2254 -10.0665 -7.44781
O -8.97365 4.74018 -8.5655
O 5.96803 -9.00309 0.225527
O 5.39409 -7.90712 3.91069
O 0.927933 -4.88972 -1.16135
O -1.3513 -0.793671 2.54416
O -7.27977 -4.48343 2.3117
O -7.57553 7.41766 -5.46825
O -6.88445 9.66329 7.12459
O 9.12747 -3.61921 -3.05879
O -6.4649 -0.0190956 8.43372
O -1.10433 -3.42639 4.8205
O 8.79558 5.27123 2.55245
O -6.29237 7.48353 -0.103094
O 2.23876 0.640564 -3.82163
O -4.75961 10.4302 3.539
O 7.43122 7.01809 0.0434807
O -6.49387 4.17311 9.19711
O -3.74224 -2.65536 -0.899211
O 0.432591 5.44424 4.65512
O 2.71656 -2.00042 -6.25676
O -9.55327 -2.81994 -4.13225
O -4.8339 -6.39654 -4.76721
O 1.09284 -8.89319 -3.0623
O 1.38335 -3.36022 -8.08834
O -8.44064 5.647 -3.78804
O -7.69867 4.96136 -6.31067
O -3.17078 2.23059 5.54166
O -6.71891 -2.37772 7.50863
O -5.39268 -0.149731 3.74164
O -2.07528 -1.33165 9.08363
O -8.28201 10.2614 -3.74031
O 5.5529 -1.35505 1.70143
O 10.2738 -8.23848 -5.76114
O 0.172676 -0.0616109 8.48308
O 8.1983 5.25294 -1.69453
O 7.58049 -1.14042 -1.04447
O 4.93498 8.75431 -3.14803
O 0.881047 -6.62043 6.1456
O -4.05168 7.3631 -5.06141
O 1.42663 2.87334 -4.52575
O 5.84368 6.36396 -1.89947
O 10.4907 9.54035 -2.70164
O 10.0023 -1.6957 7.21208
O 2.14889 -3.73255 3.70294
O 5.76465 -10.1101 2.52468
O -1.96459 -2.77653 1.01033
O -7.42263 -5.86494 7.03813
O -4.17793 2.81873 -7.9222
O 9.19304 -5.59273 6.11567
O -0.805939 5.5609 -0.938635
O 0.821645 -8.42938 -6.87963
O -2.76843 -8.19894 -0.355156
O 9.182 -9.39694 3.83832
O -4.97237 2.65829 -5.63248
O 3.92836 -2.69975 -8.36545
O -8.62161 7.97836 -2.15734
O 1.49108 1.28374 6.64548
O 7.17023 -3.31321 8.69966
O -9.41289 3.87312 4.93106
O -0.363821 -0.994206 0.149045
O 1.17669 -7.87609 3.57852
O -7.90976 2.83009 -1.82789
O 4.90909 3.73868 -7.32414
O 6.68779 -2.9012 -2.8274
O -0.263937 8.44779 8.33114
O -8.56215 -8.62203 0.783209
O 2.74828 -8.30932 -1.18694
O -6.17728 -1.95797 -0.264037
O 3.33425 -9.14751 2.96871
O -6.74667 6.73791 -2.63078
O -7.41283 3.87091 3.16787
O -6.24709 9.52067 1.49273
O -4.26421 2.11135 -0.30803
O -0.510249 3.3922 0.240682
O 7.8565 0.936921 0.547404
O -6.31307 -9.34988 -3.05863
O -4.24992 2.76155 -3.01634
O 5.54559 -8.84659 -6.54179
O -10.0715 10.3353 1.04388
O 0.704383 1.54798 -8.83324
O 8.48112 -8.34914 -7.52677
O -9.14569 -8.6327 3.49804
O 4.99867 2.3978 5.08825
O 5.62642 1.10293 -7.18764
O -8.95915 -1.39601 8.73562
O 2.10423 -0.716694 -8.37558
O 0.854988 4.87783 -2.80179
O 3.29163 -5.73696 -0.558497
O 8.85951 -5.14158 1.05446
O 6.70782 -7.66306 -4.68235
O -9.3486 6.84596 -7.19243
O -6.43638 9.70297 -9.00469
O 5.02558 5.26735 5.55415
O 4.94235 -0.761563 -5.67421
O 6.4884 -5.31109 4.17068
O -3.24534 9.75236 -5.89026
O 8.13448 -1.54563 1.35581
O 6.23312 4.60822 -0.0419779
O 9.87485 -7.3615 2.02607
O -2.13065 4.45988 -7.32127
O 6.59232 3.57596 6.58707
O -5.55315 -4.71243 -6.7502
O -6.24753 9.23599 -1.97696
O 7.83496 -7.91913 -1.25576
O 7.62152 7.59525 -9.06859
O -8.6189 -8.16273 -3.53446
O 2.24805 -3.9439 1.01826
O 7.67032 -4.69966 -1.23892
O -6.43028 5.39283 -8.58881
O 2.09709 5.35492 -4.98409
O 10.0073 4.81487 0.0465549
O -3.17005 -0.403602 5.19342
O 8.69566 -9.93445 -2.61506
O -4.62567 9.06713 8.34524
O -2.58189 7.38085 8.26473
O 4.76395 -10.3298 4.89161
O -6.46907 1.67836 2.13136
O 0.748044 3.58075 7.41826
O -5.76327 6.12256 4.7711
O 8.9919 -4.98571 8.68975
O -3.54617 4.58864 -4.76584
O 2.39283 -4.53038 -4.28446
O 9.05162 1.44429 -4.11298
O -9.84842 -1.00254 4.94128
O -4.22789 1.66135 8.39294
O 4.58102 6.78609 3.57301
O 8.02075 -9.21876 1.61822
O -10.3969 -9.61128 5.79415
O 10.2582 -6.63045 -7.60627
O -7.55423 -4.91793 -0.331186
O -3.7413 -4.81257 -3.25532
O 9.70077 6.78766 4.47851
O 9.96949 -7.50693 -2.94982
O -5.95418 -7.23964 -6.97524
O 0.540748 -3.8711 6.66458
O 4.87323 -3.19615 -6.19146
O -8.62824 8.23621 1.14512
O 9.00028 6.48007 -5.41314
O -0.697391 -5.965 4.29489
O 2.19526 -5.2244 7.91467
O 3.41639 -2.33678 5.73727
O -9.46404 2.39381 -4.03899
O 8.02781 -9.54222 6.24583
O 9.88228 -8.62112 -9.43848
O 4.89431 -4.35886 7.76863
O -4.6943 10.1347 6.02963
O 6.82505 2.84391 1.88193
O -2.38669 -4.68058 -5.53708
O -4.02925 10.2892 -2.06732
O 9.76312 5.04079 -7.37932
O -2.83202 -4.98032 3.30014
O -2.68371 1.95753 -4.93845
O 4.51727 2.75817 0.444335
O -7.12728 1.02054 -3.41122
O 7.21749 -5.31026 -3.8437
O -5.08772 -2.1747 5.42024
O 4.85705 -5.81258 -4.83193
O -1.23557 -6.68766 -1.92861
O -5.28716 0.289475 6.28409
O 1.67764 3.20942 5.005
O 9.68737 8.18631 0.691345
O 3.5189 3.40063 6.86957
O 0.594126 7.93292 4.18087
O -6.70211 7.22668 2.49479
O -4.16593 -0.339144 0.124902
O -5.56904 0.657364 -7.22985
O -3.61303 -7.2646 -2.57647
O -5.30606 -0.251081 -4.88823
O 5.31584 8.06808 5.68923
O 10.0097 -5.34766 3.50105
O 4.26447 -6.82013 7.6387
O -1.19029 -0.319956 -4.94799
O -5.98329 -6.01927 -2.28289
O -1.5641 -4.26982 -1.18627
O 1.95217 2.47277 0.807965
O -0.866145 7.15714 6.2397
O 2.47271 -0.960515 -1.91226
O 4.20564 0.319807 3.31572
O 2.67222 4.98763 3.38215
O -5.1884 9.70105 -4.24825
O -2.11021 8.53001 -2.8045
O 3.70572 6.70851 -3.50915
O -4.16115 -2.37724 7.84499
O -4.45922 -3.26872 -5.08544
O 10.22 6.93254 -9.15678
O 1.30152 -10.4566 -0.976066
O -4.60088 5.79222 -6.95863
O 6.15099 -1.56365 -7.62257
O 4.92167 4.69274 2.10244
O -0.289263 6.3923 -7.07389
O -8.49954 -7.17685 -6.68972
O -2.99107 -7.21894 2.00449
O -6.3886 2.38255 7.39512
O -0.5958 -8.52454 5.23282
O 9.29538 9.33165 5.00672
O -3.68345 9.88168 -8.3987
O -6.80222 2.98897 -7.71556
O -6.44635 4.88176 6.85876
O -10.0274 8.39069 -5.39205
O 3.06198 -1.85578 2.25614
O 5.02702 -9.79377 -8.77335
O -7.13969 -0.88509 1.88013
O 3.26664 9.72413 -5.0192
O 3.81536 7.63509 -0.96174
O -1.5512 -2.48644 7.13144
O 3.65237 0.427347 0.894918
O 6.09985 -4.30102 -8.32794
O 9.54793 -2.51267 9.5678
O 3.67729 2.09013 -5.67897
O 6.78287 -7.28385 5.91347
O 4.72015 -3.59268 4.11415
O -5.18737 -7.11166 6.46984
O 8.49835 -7.48027 7.79509
O -0.993953 -0.967652 -2.47616
O -8.7784 -7.75628 5.92805
O -3.33418 -6.73954 8.12764
O -8.73553 -6.09685 -2.26952
O -1.49293 4.0696 6.0524
O 0.839987 9.45168 6.1549
O 6.54673 -3.31359 6.05436
O -2.41546 4.67448 1.18098
O 7.49444 -0.104528 -5.76335
O -8.14253 -0.356788 6.63292
O 0.640659 3.70481 2.59771
O -3.23407 -0.14837 -6.38178
O -9.41614 0.768232 -2.19717
O 2.92592 1.46324 -1.35157
