582
Atoms. Timestep: 1790001
Si 0.521179 -4.35916 10.1016
O 1.27911 -4.47532 11.6348
H 1.74768 -3.70704 11.9392
Si 1.30832 -1.25626 -9.99974
O 1.88179 -1.29916 -11.5822
H 2.7746 -0.982343 -11.6529
Si -1.11936 -7.01179 10.138
O -0.852722 -7.5106 11.7761
H -0.744075 -6.86174 12.4614
Si -1.89999 -0.616655 -10.0815
O -2.17745 -0.703113 -11.7861
H -1.54986 -1.25379 -12.2393
Si 7.58534 1.12659 9.17519
Si 9.0737 -0.823052 8.83811
Si -4.11122 6.79346 8.71261
Si -2.79136 4.72859 8.70664
Si -7.01885 1.25934 -3.31656
Si 1.47523 9.94265 -8.31732
Si 9.24351 9.5852 0.591236
Si -9.43117 8.33239 -8.46929
Si -6.40817 8.65567 -8.11969
Si 6.30553 -5.1536 -1.3351
Si -5.50212 -7.92861 2.47692
Si 2.11469 2.78444 7.86381
Si 10.2563 -2.44567 3.70185
Si -7.07643 5.69784 -0.519175
Si 9.5764 6.70408 1.91792
Si -8.11126 9.12437 3.9891
Si -9.77159 4.03901 -3.92279
Si 4.79372 5.78856 -0.383645
Si -9.65888 9.08475 -1.39744
Si -0.101779 0.559594 7.17571
Si -0.260882 1.02037 -6.40887
Si 8.04527 -3.41895 7.5999
Si -2.64949 -6.51432 0.962788
Si -2.70765 6.92367 -1.45361
Si -8.75161 4.06652 4.23077
Si 5.89836 6.77185 -5.13046
Si 8.91187 2.66053 6.98741
Si 1.9086 -4.01322 -8.37654
Si 1.68893 -1.11131 5.14042
Si -6.68055 6.14474 7.12625
Si -1.48058 -10.0445 -7.30932
Si 0.551056 -7.35136 -1.50034
Si -5.25757 6.1403 -6.7382
Si -7.26919 -2.64205 0.765147
Si 10.3668 -5.49437 -6.51995
Si -10.3867 -3.09696 0.595021
Si -0.238455 7.04935 1.93764
Si -6.82119 -5.02852 2.75016
Si -1.4481 -9.7867 -1.51642
Si -1.60305 -8.22811 5.80005
Si -7.62927 3.07057 7.04905
Si 2.3502 -5.29575 7.61679
Si 4.9993 0.900414 0.772611
Si -4.71789 1.37803 1.17949
Si 6.4254 1.23908 5.82668
Si 1.28636 3.98521 5.31043
Si 9.84135 6.87116 -3.12287
Si 10.2971 -4.86971 -3.36849
Si 5.36558 -9.74671 7.32378
Si 6.5804 -9.84167 -7.55279
Si -1.77665 4.69351 0.566737
Si -9.29334 7.81048 6.61021
Si -8.04629 5.90915 -5.35797
Si 0.356851 3.83162 -1.35192
Si -9.46607 -0.586125 -3.69018
Si 3.29456 -1.74759 1.63373
Si -1.19645 -3.60838 -3.48716
Si 1.15716 6.34403 -5.13742
Si -7.6624 -6.8827 -1.23896
Si -0.940777 -5.29121 -8.18858
Si 9.12342 0.641144 -5.34376
Si 0.30557 -0.381115 -1.72743
Si -4.61298 5.52574 5.05841
Si -2.95658 -7.52913 -8.53917
Si -4.85209 3.12325 -6.88351
Si 5.14845 -3.27269 3.84946
Si 7.78754 -6.97644 0.751154
Si 7.59296 -1.57851 4.9258
Si 7.78749 -3.00427 -3.05577
Si -8.22527 6.46979 2.41652
Si 4.19494 2.05109 -3.85192
Si -5.60249 -2.98782 -1.76405
Si -10.484 -10.5067 7.16009
Si 3.22232 -1.43826 7.76671
Si 2.34828 6.53618 3.67674
Si 8.17178 -8.81399 7.70324
Si 7.30866 -7.53645 -5.56671
Si 10.375 -6.03208 -0.561576
Si 1.6942 1.59363 3.54291
Si -4.03713 8.68195 0.924471
Si 7.56389 6.68954 4.30356
Si 2.78835 -2.97153 -5.57395
Si 2.74526 -9.89799 -5.84218
Si 3.61272 -4.00477 -0.544783
Si 4.50554 -10.2549 2.99769
Si 8.76198 -9.82953 4.85771
Si 1.71659 -2.76651 -2.72887
Si 4.80047 2.43479 3.31499
Si -5.85158 -9.83517 4.62181
Si -9.30687 -6.94074 3.46446
Si 0.429194 9.75283 0.510352
Si 1.06588 -4.22116 4.97518
Si -7.78085 -4.80461 -3.41458
Si 2.32133 -6.47106 0.699095
Si -2.29337 2.15968 -8.57058
Si -4.86344 -5.21596 -7.21139
Si -8.94226 -7.67818 6.58902
Si 3.32164 2.92637 -0.987346
Si -0.185438 -4.90443 0.0214852
Si 9.47089 -6.16445 7.34303
Si -2.8693 10.0879 5.16987
Si -0.940431 4.57781 -8.24725
Si -10.3174 2.81356 -6.78865
Si -3.30249 3.43146 3.06857
Si -0.65092 1.9175 -3.62634
Si 0.393645 8.28747 7.88487
Si 8.76688 7.47693 -6.04438
Si -8.31024 -0.905977 4.96038
Si 5.22092 -7.52008 -3.2245
Si -9.74722 0.810939 7.28405
Si -7.39131 -1.54216 -5.87553
Si -5.93035 -2.9303 5.01552
Si 9.36303 10.0728 -7.87957
Si -9.36787 3.66931 -1.05217
Si -1.67462 -3.60942 6.31754
Si 9.27613 3.82031 0.770226
Si -3.22733 -1.52529 4.40729
Si 0.369776 6.9362 -2.3403
Si -9.32062 2.33294 1.65615
Si 0.513213 -0.0870845 1.32888
Si 2.85129 8.5202 -1.04064
Si -5.39592 3.08608 -1.43799
Si 4.18192 -0.205654 -6.06308
Si -2.55307 -1.0053 1.4825
Si -5.22505 -9.01721 -5.57839
Si 7.76334 1.43592 -0.519033
Si -4.70214 -5.75213 -1.29848
Si -2.51309 1.39462 5.37932
Si 7.03164 -1.78149 -5.8813
Si 1.50842 9.16368 5.22735
Si -7.65379 -4.53105 -6.56562
Si -3.23699 -6.61014 3.79616
Si -10.2938 5.64534 -7.61231
Si 6.51321 -10.0217 0.478351
Si 1.28796 -9.77449 3.04821
Si 10.243 -8.44125 -6.12672
Si -4.60416 2.92671 7.05176
Si -4.92474 -0.972597 -4.00422
Si 2.10832 -6.87743 3.63727
Si -3.50489 -9.30502 0.748826
Si 0.826303 -8.01259 7.72698
Si -8.30009 8.76962 -5.69448
Si -1.3537 -6.25167 -5.14687
Si 9.3493 -1.05668 -1.30609
Si 7.34501 2.56634 -3.44556
Si -8.16453 -9.42486 -4.76374
Si -7.39766 0.0788814 2.39794
Si -2.52167 9.35828 8.23144
Si -3.4278 2.89344 -4.00463
Si 5.15071 5.48096 2.68882
Si 0.977894 6.86909 -8.26996
Si 9.84331 5.32337 5.8274
Si 0.106432 -1.93772 8.41421
Si 9.38861 -5.21632 4.40489
Si -4.24112 -5.05154 6.37757
Si 6.32905 9.51004 4.87895
Si -3.24191 -8.51187 8.41772
Si -1.74826 -2.56143 -0.88356
Si 2.58716 10.3603 7.73576
Si -7.58901 -9.81012 -1.80068
Si -2.18409 -1.32983 -5.41795
Si 7.17782 5.58344 -2.56448
Si 7.27664 -4.74391 -7.00462
Si 5.01961 10.4985 -2.25942
Si 4.67053 1.10575 8.57725
Si -3.35094 7.18969 -4.43297
Si -5.87622 -7.74269 7.16858
Si 5.36338 9.68467 -5.1087
Si 6.55066 -5.72379 3.36039
Si -9.96701 -9.69473 2.62941
Si 3.63782 4.76045 -5.38662
Si 3.72736 -8.87938 -8.44017
Si 2.16219 4.0337 -8.19372
Si -4.32481 -6.34957 -4.47011
Si -2.68147 10.437 -4.40485
Si 1.29863 -7.5273 -4.4038
Si 4.95156 -3.94832 7.1272
Si -2.95209 -2.88761 -8.13575
Si 4.75732 -7.73725 5.01289
Si -1.45199 5.02796 -5.23992
Si 2.40261 1.05857 -8.1995
Si -6.83334 8.6282 -0.405954
Si -7.53089 1.57977 -6.39995
Si -4.19165 -10.1788 -8.39469
Si -2.69723 7.49657 3.60094
Si 4.52355 -5.88588 -8.26637
Si 3.55153 -5.83709 -5.28451
Si 0.16414 5.06988 7.95853
O -3.56408 5.7135 9.79627
O 8.47895 0.117516 10.0451
O -7.4354 0.0243121 4.00514
O 7.46824 10.5024 4.31737
O 8.98487 5.27297 1.38469
O 4.23721 -0.553436 1.11345
O -2.69617 -1.82627 -9.35515
O 4.92707 -3.76243 5.44624
O 5.44855 1.08464 7.11195
O -5.65255 7.25551 -7.7833
O -5.90552 -8.88151 5.90893
O -8.85367 -2.77236 0.218035
O 8.93582 8.854 -6.88968
O 7.98485 -2.59804 6.19401
O -2.26215 1.8024 -3.79664
O -7.0215 -4.05095 1.5299
O 1.75084 9.14424 8.36691
O 6.36047 0.807129 -0.0794409
O 7.89737 -10.3373 -8.3066
O 6.33388 6.47051 -3.64621
O -1.29643 6.87776 3.19336
O -7.46036 -7.50167 7.21055
O -6.23132 -6.24983 -0.878622
O -1.97909 -7.21639 4.62303
O 7.17671 -5.78619 -0.150266
O 2.56609 9.94755 6.16052
O -2.31381 0.835524 -9.53397
O -8.38383 4.70806 -4.34331
O -8.87982 2.2254 -6.98764
O 2.89704 -1.19634 6.15784
O 6.00843 1.28841 9.43769
O 6.12222 -5.27118 -8.11213
O -2.70304 -2.05643 -6.77509
O -4.31692 2.76751 -5.36274
O 7.50805 4.22597 -3.30134
O 3.89528 -2.41284 3.12107
O -6.72422 -3.79377 -2.70843
O 10.2122 -4.56491 0.134727
O 5.35735 1.49489 2.18848
O -0.669906 5.83712 0.990854
O -10.4805 -2.89932 2.21666
O 4.99395 5.52906 -5.63784
O 4.03349 4.37431 -0.756879
O 10.0983 -9.73792 -7.06384
O 8.57484 -7.31054 8.0547
O 1.88738 5.24543 4.48859
O -2.82783 -4.54491 7.02836
O 10.0432 1.63291 6.63287
O 4.08016 -7.39987 -8.90742
O 10.3922 -5.49178 -4.89984
O -9.04065 5.6294 -6.58543
O 2.42332 3.32931 6.33998
O -9.61395 3.14844 -2.56538
O -2.38095 8.9799 4.10185
O 0.471203 8.50745 6.31007
O -6.41183 -2.35924 -0.491897
O 9.66873 10.2006 5.80588
O 1.54292 -7.52021 -0.244973
O -6.82793 -9.20986 -5.72082
O 9.40867 -9.78723 8.08193
O -5.3552 9.70551 -8.64906
O -6.34008 -4.03568 3.91539
O 0.880454 10.1985 4.19297
O -4.7897 -1.85282 4.5422
O -8.03171 5.37952 3.69763
O -0.71042 -5.42742 10.0536
O -5.88189 6.24451 5.70826
O 1.73556 -2.64972 -9.16683
O 10.4127 5.39223 -3.49009
O 2.57466 -9.95143 -9.02816
O -4.82284 2.1443 -0.269096
O -4.15304 -9.84035 -4.64792
O 1.47805 -7.44765 -2.81157
O -0.0288142 -7.64337 9.06855
O 3.18735 2.09181 3.28369
O -1.96945 6.48503 -4.97336
O -4.72408 4.70824 -7.21622
O -9.36347 8.52248 -6.87809
O -7.54168 -0.0280617 -6.46067
O 3.85603 7.22263 -0.532511
O 6.38076 -2.24149 4.06943
O -9.43645 -8.51389 -5.14412
O 9.87341 -9.38235 3.7335
O 5.70304 -0.801042 -6.03182
O -7.31883 4.66898 7.41386
O 1.82458 0.149496 4.21286
O 1.74938 -1.1354 1.69238
O 1.30782 4.08572 8.45434
O -7.27517 -2.06776 5.30072
O 2.57952 2.55219 -8.70262
O 0.64129 0.249091 -0.251829
O -2.82338 -9.54855 -0.725149
O 3.78556 -4.17717 -5.14349
O 1.99182 -6.30966 -5.21298
O -8.89888 -7.33739 4.98653
O -6.72744 9.93988 -1.31687
O 9.93259 9.53036 -0.846004
O 5.45909 1.92659 4.70446
O 9.2546 -3.62775 -3.39172
O 7.19172 7.09882 -5.99153
O -6.2305 -9.09408 3.26977
O 8.75515 7.07299 3.21404
O -6.87442 9.90245 4.61593
O -8.95571 10.2157 3.20245
O 8.18581 -1.76337 -2.13675
O -8.98794 8.50424 5.18825
O -5.054 -6.3555 6.88497
O 2.25375 7.90242 4.55648
O -2.44972 -2.53494 5.4599
O -1.21361 -5.75078 -6.66812
O -10.2306 4.57634 4.68868
O 5.85969 9.9866 -3.5592
O -10.4963 -0.286836 8.3009
O -1.94509 -8.4969 -7.61132
O -7.79535 -6.24366 -2.70863
O 5.18713 -4.10015 -0.902456
O -1.01204 -1.24328 -1.46506
O -2.49892 2.60353 4.24036
O -3.82275 1.7829 6.30517
O -10.3346 6.56138 6.40987
O 5.8344 2.26361 -3.84413
O -2.81119 -1.79356 2.83331
O 9.53932 4.16952 7.0044
O 1.15337 -5.27969 0.862292
O 9.74778 -1.97504 0.00932103
O -6.04 -6.41632 2.4747
O 3.34176 -2.94375 0.588696
O 9.9589 -5.77421 -2.1279
O 0.686037 7.26063 -3.90275
O -6.28548 2.39268 -7.01832
O -4.07427 -6.50619 -7.8773
O -2.74587 10.2137 -8.04397
O -7.18148 -1.46666 1.86674
O 10.4877 -7.05841 -6.99557
O -10.307 3.40047 -5.26513
O 5.32682 -10.0872 1.59536
O -9.35112 -8.22712 2.42633
O 2.03344 5.59981 -8.75405
O -1.78067 3.61851 -9.14281
O 9.36152 7.98994 1.02933
O -3.07568 -5.87655 2.40432
O -5.97732 4.48573 -0.803366
O 0.217231 4.68336 6.39681
O -1.0178 -0.306236 -5.90229
O -8.61014 -1.54564 -4.76311
O 5.28307 5.66922 1.12374
O 0.0110219 -2.8909 9.69791
O 6.51136 -7.80851 -4.23446
O 1.77474 -6.78694 7.43576
O 1.53717 -1.38295 -2.02621
O -8.4529 4.98479 -1.05657
O 4.04913 -10.4763 -5.12806
O 10.1938 4.10547 -0.528551
O 3.27966 -8.7803 -6.92715
O -4.27748 4.57635 3.70957
O 0.490309 3.93001 -7.97207
O 3.46677 2.21628 8.49674
O 5.96599 -6.76672 4.53731
O 3.38343 -5.51515 -0.120094
O -8.1991 0.269616 -3.07067
O 3.62482 3.42652 -4.5046
O 4.68077 -8.90667 -2.62796
O -7.55062 -4.81782 -4.98335
O 0.141036 5.06981 -5.04817
O 1.97418 9.33165 0.115578
O -3.12252 5.98059 7.66539
O -1.70992 -3.89415 -8.21154
O 3.76504 6.21402 3.06821
O 7.10058 -5.93229 -5.88095
O -1.25805 4.4865 8.6603
O 6.33339 6.08331 3.55407
O -2.69714 -8.13008 6.9901
O 7.12877 -4.26959 -2.35336
O 1.27523 8.41851 -8.73926
O -2.74614 -10.0576 8.64352
O 1.12909 -8.23652 3.64343
O -0.272453 8.44742 1.17998
O 10.483 9.39427 -8.85561
O 3.87128 -0.276587 8.71144
O 8.25275 -0.722023 -5.78937
O -1.81634 -6.42417 -8.97808
O -7.41799 1.80471 -4.83143
O 3.77964 9.5244 -1.89083
O 1.43649 -5.44217 3.92532
O 7.77922 10.1161 0.759649
O -1.85759 -10.3223 -5.73655
O -7.43313 -8.42979 -0.990944
O 5.15226 -9.67818 -8.38582
O -2.4794 -8.09139 1.16044
O -0.22735 -7.35995 -4.82595
O 3.72699 2.11736 -2.35183
O 10.2894 -6.18045 3.50481
O -4.37401 6.80937 -5.57259
O -0.231061 3.11903 -2.63227
O 0.61839 -5.03676 -8.5058
O -10.054 -6.75287 7.27426
O -3.47387 8.25203 8.85531
O 6.46497 -3.83304 7.62342
O -0.817568 3.77364 -0.318298
O -5.24658 -7.51826 -4.98887
O 1.04221 6.94267 -6.59567
O 2.13533 10.0118 -6.81629
O 10.2132 2.91941 1.70209
O -5.22925 -3.81507 6.13549
O 5.05878 3.97653 3.03513
O 7.92134 -0.0108476 7.96257
O 2.0795 -0.0477365 -9.36727
O -9.21724 -4.83755 -6.91715
O -8.76135 0.829491 1.80906
O 1.87484 -4.45924 6.3511
O -2.35439 4.07987 1.94158
O 0.822968 1.23035 2.25533
O 10.2007 -3.86685 4.4993
O -8.91385 0.0295719 6.15797
O 1.71162 -1.67743 8.26162
O 1.64687 -4.76152 8.95422
O -10.0698 7.85789 -2.3895
O -6.14402 2.49576 7.17735
O 0.970305 2.73741 4.42083
O 1.59458 -9.38333 7.89339
O 7.54142 2.30695 6.25168
O 10.2329 -10.4064 1.49117
O 0.995714 1.62021 7.62017
O -4.23372 -7.76124 3.41198
O -6.41942 -5.21703 -7.33323
O 1.75852 3.20298 -0.912708
O 3.66163 0.62555 -7.34994
O 0.0401379 -5.816 -1.31934
O -2.7703 9.42038 6.63173
O -9.0135 10.4392 -1.85769
O -4.60824 4.26245 6.12095
O -5.65533 0.343779 -3.44682
O 0.276724 6.6817 8.18372
O 5.00505 -8.45601 6.43651
O 7.0883 -0.1447 5.3642
O 8.27768 1.7172 -4.42032
O -7.49131 -9.32993 -3.27485
O -3.57098 6.71193 4.60815
O 8.69466 -2.2912 8.64061
O -2.67334 5.56764 -0.484619
O -4.86509 -8.38148 8.34932
O -1.8644 -9.70378 5.2364
O -5.62839 6.52343 8.23707
O 0.586759 -10.1838 1.67661
O -1.31239 1.31221 6.46334
O -0.506854 -4.25093 5.44638
O -8.20039 7.44276 -4.86471
O -3.0322 8.79951 -4.30977
O -7.4707 5.9374 1.07537
O -3.56979 10.168 1.2664
O 8.50598 2.28509 8.5667
O -4.65367 -9.37138 -7.06372
O -2.73674 -2.06045 0.224574
O -9.83329 6.47437 2.10997
O -9.09359 -6.4702 -0.63851
O -0.554157 10.267 -0.659797
O 5.46152 -4.6175 3.08909
O -4.93417 -8.60286 1.11657
O -4.18399 -3.85095 -7.87632
O 6.7662 -8.43026 -6.7823
O -9.81018 9.07684 7.49394
O -2.78063 0.0219916 4.67669
O 3.32593 -7.10633 4.72091
O 1.63412 7.77442 -1.70589
O -3.59482 0.262295 1.24683
O -4.50217 -6.08044 -2.89014
O 5.78564 10.0414 6.31597
O 3.98279 1.93181 0.105338
O -3.49073 -0.705733 -4.74398
O -1.29982 -4.95343 -4.28792
O 7.0063 -2.4403 -4.34083
O -8.67437 3.03402 2.96606
O -8.64535 10.0656 -4.91192
O -0.0295655 -10.4065 -7.94403
O 2.92806 4.22002 -6.80196
O 6.11472 5.59797 -1.29959
O 5.69774 -6.46259 -2.06924
O 7.02339 -3.15339 -6.80323
O -8.16173 3.33179 5.50627
O 4.82952 -8.96044 3.90851
O -1.61478 -2.38566 -4.37096
O 2.62041 5.85501 -4.8086
O -6.67275 2.29053 -2.11617
O 7.67038 2.02971 -1.97347
O -8.45614 8.60482 -0.308033
O -3.52273 7.74619 2.14077
O 0.0219536 0.636439 -2.87887
O -9.45945 -9.24949 6.77302
O -8.90212 2.7892 0.151568
O 8.90412 0.364553 -0.671187
O 6.24046 10.1294 -6.33876
O -5.96262 -1.54947 -5.03041
O 2.0201 -2.61533 -4.28253
O 0.508422 -0.534146 6.18332
O 1.24171 6.72016 2.52792
O -2.36408 4.07811 -4.38265
O -0.932538 9.01443 8.38004
O 0.312272 -3.49013 -2.91141
O 9.34471 7.56965 -4.50778
O 8.02563 2.74539 0.480698
O 10.3671 4.0451 -7.66364
O 0.594587 5.39807 -1.8405
O -0.553444 -3.37932 -0.148595
O 10.4522 0.222378 -4.55523
O -9.84124 6.79465 -8.65175
O -8.28095 -5.69481 3.0152
O 7.89278 -4.90135 3.77143
O -5.66212 8.69922 0.647088
O 2.88199 -10.2094 2.86921
O -4.19504 2.44632 2.22705
O -1.35563 -5.70251 0.567378
O -7.81976 8.55712 -8.85448
O -0.021701 1.90834 -5.0824
O 9.06017 -4.6882 7.75507
O -7.78458 7.91495 2.98028
O 7.12006 -6.682 2.19898
O -3.73441 3.44253 8.29185
O -3.40554 6.81229 -2.88446
O -0.289424 -0.990008 -9.95015
O -4.75144 -4.14871 -1.16972
O -10.4648 -0.955181 -2.43694
O -8.7327 2.06165 7.68504
O -4.55478 -5.19428 -5.58526
O -3.87735 -5.51042 4.86313
O 5.0406 8.12986 -5.23983
O -2.09671 -3.52195 -2.13238
O -0.44012 6.12511 -8.59414
O 6.74716 -9.36195 8.03815
O 4.19095 -6.10368 -6.7181
O 2.72648 -3.67032 -1.80464
O 1.28196 -2.63961 4.65489
O 7.05004 8.0654 4.9396
O 9.36674 -6.91814 0.320199
O 8.39803 5.70874 5.23348
O 1.10295 0.915136 -7.27201
O 5.14738 9.53843 3.78252
O -9.60112 -1.52038 4.26006
O -3.67119 -6.32123 -0.233397
O -0.150302 -8.04667 6.47416
O 9.46908 6.35339 -6.8928
O -4.33967 3.21076 -2.67846
O -4.33166 -10.4014 4.82917
O 8.27847 -8.89197 6.07596
O -0.732906 -2.81409 7.36765
O -2.82186 -6.81795 -4.76995
O -0.965362 -0.563417 1.57327
O 8.60685 6.43601 -2.29988
O 8.92122 -1.56173 4.08761
O -0.629517 -8.45768 -1.69723
O 4.10258 -10.2399 8.21868
O -9.28262 -4.27301 -3.10068
O -6.13184 0.815515 1.69948
O -6.93664 9.05298 -6.52825
O 9.64784 1.58883 -6.62184
O 8.95826 -4.8684 -7.06599
O 3.92391 0.766219 -4.78943
O 9.16265 -5.95507 5.80027
O -4.87081 -1.96718 -2.75017
O -1.14206 7.27329 -1.78401
O 3.34453 -4.83147 -8.66852
O 7.18079 -8.48129 0.403313
O -6.59791 5.69717 -5.89905
O 4.01325 -5.18701 7.49644
O -3.7607 2.39302 -7.89191
O 4.18013 -6.79474 -4.17485
O -6.57552 7.10185 -0.949969
O -0.456295 -0.406441 8.42667
O 8.8174 -8.04966 -5.43952
O -3.77261 -8.80958 -9.24497
O -1.87465 -10.2416 -3.0287
O 2.71743 -6.90256 2.1578
O -3.2925 8.07255 -0.432327
O 5.93116 -10.4182 -0.975464
O 4.22325 -2.63766 7.75271
O -1.63689 4.65044 -6.78093
O -1.26986 1.68228 -7.50017
O 1.82863 -8.95087 -4.87627
O -2.48834 -7.50273 9.48639
O -7.47808 -2.91692 -6.64796
O 2.00147 -3.58004 -6.81584
O 3.44196 -1.64205 -6.12973
O -7.98864 7.12833 7.18934
