585
Atoms. Timestep: 1790001
Si -9.28193 8.72237 -8.09527
O -10.073 7.8015 -9.27733
H -9.50002 7.28696 -9.83363
Si -0.245401 -8.15646 9.74191
O -0.953881 -8.17317 11.3136
H -1.47561 -8.93607 11.5334
Si 8.2446 -6.07391 10.5545
O 8.0159 -6.21136 12.2124
H 7.62178 -6.99177 12.584
Si -8.87587 -9.27615 -9.1533
O -9.39042 -9.25799 -10.7066
H -9.74432 -10.0814 -11.0215
Si -1.83245 10.3456 8.58663
O -2.53634 10.0716 10.1437
H -2.51517 9.1657 10.4289
Si 9.63362 -3.22703 10.425
O 9.93914 -3.2266 12.1045
H 9.23015 -3.04678 12.7107
Si 8.67405 0.118904 6.15102
Si -3.45997 10.2332 -7.99295
Si -1.299 5.66659 -3.01977
Si -4.55377 -5.29727 -1.23144
Si 1.85074 -10.0331 1.47494
Si 4.38626 -9.02018 0.243143
Si 6.71184 0.792385 -7.7737
Si -5.47121 1.61397 -3.10635
Si 7.0154 -3.82025 -0.728617
Si -9.69619 -9.88235 1.48774
Si 2.75375 -6.05775 -6.92637
Si -2.8641 -3.80171 -3.43384
Si 8.98751 3.68363 0.372905
Si 1.84798 6.06835 7.1848
Si 2.97508 -6.98737 -3.98586
Si -0.687236 7.68814 7.18515
Si -7.83058 6.90674 -6.4773
Si 4.03094 -3.32279 -0.274352
Si -5.21274 7.47602 2.58421
Si -4.76099 3.14916 -0.506234
Si -0.226682 -7.89042 0.39287
Si 7.54616 -1.46464 1.2855
Si -8.03372 7.27728 1.42514
Si 4.82781 8.60577 3.82956
Si -7.55939 9.17291 -4.23842
Si -0.769318 1.22822 -1.21511
Si 2.76993 -3.08152 -7.59113
Si -6.88645 -7.27543 -5.94681
Si -7.00572 -0.920595 -2.62
Si -3.61125 -4.70607 1.50403
Si 7.10371 -4.36795 -4.72642
Si -8.44371 -7.58005 5.30086
Si 2.10316 3.13457 7.05706
Si 2.2319 7.25599 2.8728
Si -2.99792 -9.30586 0.783103
Si 6.5223 -10.0654 2.3171
Si 1.03167 6.31965 -7.69601
Si -3.77767 -4.71414 6.94265
Si -1.52345 1.66561 3.52103
Si 2.04688 8.96415 -7.5546
Si -4.26892 -8.29708 -1.79621
Si -9.23109 4.01556 -6.80208
Si -7.09079 1.78597 -5.85032
Si 3.72878 -10.1247 -4.00381
Si 2.65202 -1.7839 -2.64954
Si -0.936361 -5.98738 7.54419
Si -5.59695 -9.4242 -4.40306
Si -9.15192 1.31513 -2.41922
Si 4.15143 3.03387 4.76196
Si -9.88159 -9.65554 7.41353
Si 9.56637 -0.0682844 -3.56473
Si -9.53981 -0.283304 -6.14535
Si 2.01636 -5.90326 6.6416
Si -8.54134 0.843906 0.695786
Si -8.77881 -4.25436 1.78794
Si -2.08474 2.42017 -6.24354
Si -9.93377 1.81835 4.97867
Si -7.21224 -3.57485 -0.913832
Si -0.630497 10.288 -2.65253
Si -4.71186 -1.98992 2.63336
Si -5.35045 -7.19155 5.57416
Si -5.71857 7.57125 -2.39295
Si -2.34136 -0.900946 -8.45965
Si 7.46625 1.94835 8.30102
Si 5.94722 2.88588 -2.39565
Si 6.20258 -7.16139 3.53987
Si 9.84471 8.87698 -5.49907
Si -9.19154 -4.53586 -3.2298
Si -0.37969 8.53402 4.11194
Si -4.48387 2.18501 4.07972
Si 6.37451 9.45488 -2.97119
Si -5.77404 -8.75229 -8.62034
Si -2.93407 8.44768 -2.94538
Si 6.82234 -4.85408 -7.70936
Si 6.63848 0.740579 -4.56704
Si -10.2165 -7.18861 -2.35116
Si 4.63125 1.49601 7.39517
Si 9.53766 -4.98296 -6.45787
Si -8.18369 -0.358335 5.50064
Si -10.4398 -7.08939 8.82905
Si 2.4512 3.54808 -0.236387
Si -5.5197 0.822771 1.42982
Si 9.38891 -0.417686 9.08465
Si 10.2521 -5.58185 6.20449
Si 8.35406 -10.4997 6.3136
Si -2.25607 -4.01939 -8.82176
Si 1.48761 5.84699 -4.5077
Si 8.33787 8.53794 1.66628
Si -1.78798 4.09705 -0.346968
Si -4.54325 0.390815 -6.89481
Si 2.36258 6.68942 -0.24189
Si 0.544616 -6.20893 -2.17026
Si -10.382 -1.83757 0.966726
Si 9.10864 3.72671 -5.40816
Si 9.66509 1.74988 -7.55266
Si -2.45588 0.960873 -3.74188
Si 1.67812 -0.455028 -6.57683
Si 6.84508 -1.7527 4.3376
Si -1.2277 -7.97734 5.08728
Si 4.43615 -1.53307 6.37074
Si -3.37103 0.635833 6.61168
Si 5.58786 -6.72595 8.90486
Si -8.80998 0.645268 8.45246
Si 3.94629 -6.13424 1.47657
Si 0.00881885 3.6381 1.85918
Si 6.41498 5.18725 -6.20766
Si 4.70804 10.4284 -7.04882
Si 3.03387 -0.904437 1.49585
Si 8.26318 -6.67187 -0.655941
Si -7.30157 -3.02277 4.27708
Si 5.96426 -6.91109 -4.20282
Si -7.67716 5.91173 6.34915
Si -0.040102 -3.141 -2.07425
Si 2.05896 1.3374 -2.54512
Si -4.16517 -6.27921 -8.37617
Si 4.44106 5.03131 -3.62648
Si 7.43219 -4.71402 5.04564
Si 9.56726 -2.7873 -1.93694
Si 3.30836 -10.2067 7.08944
Si -0.977984 2.58183 6.46404
Si -10.246 8.76421 -0.352626
Si 0.0368535 -1.29183 0.508939
Si -1.36799 -4.25185 -5.92401
Si -8.49178 8.90146 6.11993
Si -2.0199 5.53804 5.72529
Si 5.10057 7.11319 -1.4743
Si 6.85578 1.41951 0.225295
Si -6.05611 -4.57594 -6.55113
Si 5.86792 -8.45699 6.34417
Si 10.3449 6.92132 -2.97621
Si 1.34165 -9.85066 4.49209
Si -6.34651 -3.4895 7.37081
Si 0.511796 -4.83433 -8.22792
Si -3.11029 8.16625 -5.98163
Si -6.98624 5.30409 -0.510444
Si 1.92282 -5.31247 3.73838
Si 0.694183 5.6442 4.2146
Si -9.31985 3.65815 7.46575
Si -3.17155 5.0195 -5.40279
Si -6.08747 -0.34166 7.52413
Si 2.28919 -2.20894 4.22326
Si 2.72273 2.15131 -5.55469
Si 6.6812 5.88968 0.993577
Si 8.63089 4.50622 -2.41812
Si 5.59813 -2.09626 -7.93469
Si 1.48749 8.91098 -4.40574
Si -5.83559 9.78067 4.66067
Si -6.00595 5.43271 -4.71126
Si -4.89317 -7.33284 2.39021
Si -8.83045 -3.35955 -6.16891
Si -0.99413 -5.83889 2.75938
Si -9.43672 5.80666 3.70284
Si 6.52823 -8.90594 -1.85007
Si 0.19217 8.78242 -0.0492292
Si -5.08578 5.25023 4.7247
Si 10.1189 9.39698 3.98166
Si -2.94333 -2.17804 5.20216
Si -0.919258 -1.17647 -5.57084
Si -8.51701 4.37705 -3.1129
Si 8.55407 5.70848 4.81488
Si -3.13683 -8.38056 -6.13801
Si -9.15668 -4.44167 8.36999
Si 6.83841 8.25151 -5.87008
Si -0.875456 8.69535 -7.95329
Si -7.22874 -9.03413 2.88222
Si 5.72726 5.53464 3.62441
Si -9.69079 3.17801 2.35787
Si -9.92353 -9.7046 -4.23131
Si 7.51629 7.5558 7.00369
Si -1.5274 -7.87539 -3.37037
Si 4.37022 8.00099 6.80335
Si -5.06394 -2.08908 -4.83709
Si -2.4383 8.7257 1.81428
Si 5.47497 -7.55507 -7.26239
Si 4.90605 -4.41875 7.17594
Si 5.18258 -1.9316 -4.64618
Si -0.729767 -1.48516 3.48189
Si -0.202332 1.1022 -8.43392
Si -10.0555 -6.88066 0.656531
Si 1.74647 3.28575 -8.20241
Si 8.80033 4.75729 7.6883
Si 4.74793 3.07227 -7.58463
Si 2.71999 -7.93923 8.98534
Si -9.77227 -7.59318 -6.70743
Si 4.30782 2.04166 1.72141
Si -3.63239 -9.65595 6.08856
O -6.279 6.58514 -1.25633
O 3.72957 -2.14763 -3.9146
O 0.997956 7.49593 -0.604124
O -8.97285 2.27398 8.26649
O -3.81275 7.85669 1.78184
O 4.11426 2.33233 3.29499
O -0.982043 5.76659 4.52117
O -7.49757 -3.92049 -6.87077
O -10.4027 8.00136 -1.80145
O -6.32127 -7.96196 2.03286
O 5.83901 9.27627 -6.63175
O 0.686541 7.02839 7.75029
O -8.78619 -3.75772 -4.57809
O 3.69272 7.44643 -0.728384
O -5.21668 2.77067 -2.02501
O -0.988246 1.96533 -7.26078
O 3.00082 -1.43471 3.01409
O 0.504164 2.63437 6.93664
O -4.00154 9.05249 -7.02392
O 5.6601 4.30287 -7.31771
O 4.93789 2.15517 5.82363
O -1.55604 -8.76838 0.260472
O 4.78519 -2.79492 7.2797
O -3.29902 1.35585 -6.49621
O -0.60163 0.0546718 -0.124782
O 6.07197 1.89732 -1.15696
O 9.16206 -0.696885 7.50892
O 2.38519 5.92277 3.77676
O -9.00922 -8.77756 6.23542
O -8.18119 -1.794 4.77525
O -2.37565 5.11411 -4.06587
O -4.64369 -5.86273 1.97178
O -9.58359 3.00448 6.0503
O -4.68713 4.54591 -4.98525
O 9.95325 5.73701 4.02078
O -5.18173 -9.11494 -2.89253
O -6.72475 -3.59754 5.72232
O 8.0424 7.06072 5.55294
O 2.38615 2.37571 -1.30181
O 3.38814 9.84765 -7.77201
O 3.68931 3.22943 0.76685
O 3.00217 -2.83091 -1.47945
O 5.66941 5.25497 2.08375
O 9.21477 -1.75389 9.93389
O -3.82258 -1.68426 3.91815
O 5.8828 7.51272 7.17373
O -10.0976 10.3411 0.206809
O 8.8219 3.79999 -3.81423
O -10.143 -4.17265 -6.65662
O -2.40035 -9.07764 5.23458
O -4.87846 -6.86787 -1.39599
O -8.89441 4.47447 2.96224
O -1.36723 0.0633882 3.54722
O 5.44261 7.10438 3.80898
O 8.37771 8.57551 -6.06112
O -10.0352 -3.61123 9.51616
O 2.29881 -10.088 5.7727
O 10.3404 -2.34843 -0.548901
O -9.77201 -8.72592 -5.50281
O -9.87259 -8.56522 8.6381
O -3.49945 -3.41335 6.00764
O 2.37525 1.96334 -3.99203
O -4.72908 -8.49466 6.32273
O -1.84391 -0.409444 -4.48196
O -7.99432 7.88449 -7.69628
O 5.6508 -0.456608 -4.20039
O 8.24775 6.33651 7.87393
O -1.49991 -6.89599 3.9196
O 6.01465 8.35789 -1.87103
O -1.54923 -3.29289 -2.67347
O -8.63752 0.879219 4.74228
O -4.60945 0.293615 7.59567
O 7.34772 -5.40318 -0.605195
O -8.30676 -0.00439439 -2.97058
O -9.25585 -5.94785 8.83955
O 0.743747 7.41178 3.44694
O -4.79076 -0.851311 -5.82502
O -0.700891 -6.84321 8.91148
O -0.569764 -6.70321 1.4414
O 2.18861 7.40832 -8.0175
O 4.64525 3.72726 -2.69381
O -10.2812 3.03287 -7.82739
O 8.25416 2.23844 0.374713
O 3.28775 8.35962 3.21367
O -2.17882 9.41496 -8.6637
O 5.21365 -6.46938 2.45634
O 4.56049 8.70037 5.35293
O -0.811128 -2.78788 -5.43844
O -3.35634 3.8181 -0.439749
O -3.36587 8.65453 -4.46706
O 5.87394 6.15067 -0.39158
O -1.72871 2.05678 -4.64616
O -1.24408 4.4381 1.11796
O 4.07944 -10.1993 -5.59522
O -10.0871 0.0816436 9.24001
O 3.25023 -8.6093 -3.80779
O -5.04479 -4.311 7.81421
O -6.20973 -9.92056 3.79752
O -6.02686 -1.95415 7.64048
O -9.52134 -7.05646 -0.874589
O 10.1177 7.71707 -4.34699
O 6.8297 -6.54488 9.90682
O 4.03023 -6.87106 -7.34449
O 3.35916 3.17248 -8.40226
O -5.5702 6.59754 -3.67564
O -7.23947 0.251357 8.56306
O 7.38306 -8.01863 -0.842998
O 1.58614 -1.06024 0.805635
O 4.03167 -7.46287 0.675494
O -2.20535 -4.93701 2.3049
O -1.93473 0.930479 -2.236
O -6.87701 8.60216 -2.89241
O -3.54594 5.61593 5.10605
O -5.401 -3.38606 -5.74982
O 10.3672 -3.88577 -2.69696
O 6.35326 -6.40026 -8.00608
O 3.66321 9.26428 7.40222
O -2.28218 -5.06288 7.52061
O -9.26764 -0.645127 1.03104
O -5.90151 4.19711 -0.0714422
O 4.20979 -7.39223 9.39797
O 3.13899 -4.46681 -6.87415
O 7.30896 -2.89797 0.617071
O -8.14263 7.41084 6.75885
O -4.41102 -8.99997 -5.39237
O 9.15884 -1.35442 1.41891
O -0.131591 -4.92238 -6.72593
O 9.8917 0.921879 5.52191
O 1.72288 8.94317 -5.97367
O 7.73009 1.20841 6.87023
O 1.1029 -2.29071 -2.83664
O -4.7864 -10.0632 -8.61413
O 8.12347 0.301209 -3.96706
O -3.71195 -8.13751 1.75615
O -0.787877 -4.60481 -9.08419
O 10.2188 3.67382 1.38567
O -6.42486 1.93665 -4.39535
O 2.25359 -1.92135 -6.64061
O 2.38789 6.80637 1.35234
O -10.3129 4.13473 -5.65904
O 0.5414 1.10993 -2.11316
O -3.14636 6.56483 -5.98639
O -6.95226 -7.04018 5.79862
O -1.01858 2.16612 4.92245
O -7.29075 4.73234 -4.18847
O -4.89113 -0.625884 1.74413
O 0.490182 4.52217 3.08679
O 8.66723 -4.27044 -5.27164
O -4.72853 1.80656 0.373092
O -0.134523 -2.41799 -0.641131
O -1.72311 6.55033 6.91544
O 6.22473 2.04902 -3.72543
O 6.53408 6.77991 -6.33992
O -8.13592 -4.25346 -2.05328
O 9.48524 4.05273 -1.11542
O 1.77888 7.37893 -4.05635
O -9.96017 -8.32314 1.37932
O -5.3975 8.54265 3.75566
O 9.56388 -9.87838 7.16081
O -3.83818 -4.72376 -2.56014
O -7.66017 -3.93776 8.1933
O -2.94103 -10.2028 7.4889
O -2.22839 9.85625 -2.55777
O 7.68551 10.0177 1.82084
O 5.90853 -7.48081 -5.70626
O 6.69514 0.812202 -6.16794
O -4.47707 10.1877 5.4897
O 4.05515 -2.46651 -8.31804
O 7.2152 -9.41571 6.22726
O -3.93175 -9.23747 -0.497745
O 5.79792 1.92055 1.32693
O 2.79679 0.632748 -6.19295
O 3.98234 -1.9661 0.698398
O 8.89958 -4.9811 5.60207
O -9.59223 -8.31005 -8.10332
O -8.20336 -8.16939 3.83292
O -2.69315 -9.60675 -7.1185
O 4.50411 -0.105751 7.14978
O -8.8882 7.04139 2.77657
O 1.17844 3.4933 0.792405
O 2.03804 -9.72251 3.03417
O 0.500993 -0.448089 -5.50197
O 8.58523 4.71554 6.07929
O 3.14763 -9.88568 0.516579
O -1.17751 -7.15475 6.42993
O -0.482271 8.29235 5.6672
O -1.73077 8.51014 3.22998
O 8.66575 -4.47414 10.309
O -7.21403 -9.01692 -9.17014
O -4.26932 8.10936 -2.10444
O 6.17409 -4.61923 6.13343
O 1.16005 9.55275 1.09266
O -9.66105 8.98657 4.94681
O -1.18416 8.55263 0.739694
O -3.83183 -0.35472 -8.14771
O 2.45835 -3.80937 3.99882
O 9.49837 -1.47875 -2.88511
O -7.27427 -2.02234 -1.5235
O 1.28854 4.85491 -8.26734
O 6.68963 8.62301 -4.30691
O -6.65045 -0.176651 5.99561
O -8.75975 5.572 -6.88162
O 7.99911 -0.863807 5.13685
O 0.354258 -7.16735 -0.882683
O 2.29828 -6.64043 -5.49876
O -1.36454 0.299401 -9.15985
O -8.67039 5.94668 5.07268
O 2.53803 9.92844 -3.72946
O 9.42875 -6.9668 9.9242
O 9.30284 -6.69477 -1.95104
O -10.1233 8.73782 -6.67842
O 5.8366 1.83861 8.40963
O 6.84629 -1.38536 2.71694
O -8.75824 10.2039 -4.01871
O 2.72746 3.28069 5.54445
O 5.63018 9.85452 3.19553
O 0.357351 9.8847 4.03066
O -7.97958 3.03018 -6.39971
O 2.74158 -5.98037 2.51969
O 9.40887 8.40641 0.477513
O 1.21996 5.98703 -6.09455
O 8.97562 10.1974 4.88265
O -6.14483 5.77672 5.85311
O 0.517937 -5.41687 7.19631
O 10.0742 -6.54627 -6.43014
O 5.36066 -9.14257 -7.60387
O 2.87679 -9.47809 8.46176
O -1.53519 -2.40057 4.48694
O 7.12088 -5.92233 4.05118
O 9.366 -6.5737 0.532584
O -8.9969 2.79307 -3.12008
O -8.98669 8.13814 0.436495
O 8.13016 -3.34527 -1.68994
O -5.01121 3.67005 4.48159
O -4.92297 -7.48053 -9.17715
O -1.09242 2.66743 -0.669044
O 6.93713 -5.67956 -3.89529
O 10.3609 4.48021 8.01717
O -6.20283 -8.09181 -7.18346
O -1.86026 7.23185 -2.83441
O -10.1666 -8.65125 -3.02098
O -0.522131 2.19658 2.34284
O -8.09445 -3.99239 3.21759
O -7.82044 4.61965 -1.63571
O -2.49596 3.9066 -6.31249
O -5.45804 1.60299 2.95625
O 6.28462 -0.72095 -8.24394
O 7.22656 -3.25931 4.41164
O 4.42144 -6.35538 -4.03896
O 4.70147 -9.42191 6.68694
O 3.47669 0.622744 1.44029
O -6.53133 7.76251 1.71845
O -2.83008 -0.767959 6.11261
O 0.549164 9.46445 -8.12672
O -2.15334 -8.01793 -4.90782
O -6.28553 -1.62613 -3.88935
O -3.20631 -5.23426 -9.17496
O 7.23851 -10.3322 -2.21967
O -0.717026 -9.50082 8.92754
O 2.14759 4.61483 7.79653
O -7.93009 7.98375 -5.21436
O -9.09634 -1.76927 -6.3684
O 1.61122 2.79276 -6.62047
O 6.36623 -8.11532 -3.26767
O 7.11616 -0.195937 0.332315
O 1.50462 -3.55409 -8.46871
O -8.81745 1.98727 1.6816
O 0.760376 2.31644 -9.00497
O -1.23534 8.92283 8.09029
O 9.16996 2.31169 -6.1316
O 5.01678 -9.02358 -1.17652
O -5.81644 -4.31743 -0.982018
O -5.25652 -5.23698 -7.79854
O -0.722076 -1.6653 1.88913
O 9.03394 6.08653 -2.54795
O -1.63282 4.04145 6.38437
O -6.73664 -8.33014 -4.78079
O 7.10399 4.02358 -2.12243
O -6.46195 6.1506 -6.06756
O 2.40468 5.13538 -0.623746
O -7.19003 9.35328 5.45918
O 9.89067 10.3214 -4.73325
O 9.21682 8.38642 3.04102
O 2.88834 5.0496 -4.17479
O -1.60368 -1.0388 -7.04072
O -2.35991 -2.44608 -9.12772
O 5.54494 4.99753 -4.85841
O -4.12632 1.28821 5.30139
O 5.2501 -5.21602 8.46559
O -9.15667 9.9354 7.26108
O -2.23445 -4.67176 -4.66746
O -9.95612 -3.10659 1.75763
O -6.05236 -2.4618 3.40653
O -1.37038 5.122 -1.53834
O -8.36728 -6.85222 -6.44015
O 1.91088 -6.17629 5.08824
O -7.77367 -3.816 0.556455
O 8.42047 -4.9459 -7.62243
O -3.47841 -5.08673 -0.0541529
O -8.88203 1.36012 -0.859651
O -9.5364 5.66958 -3.15188
O 7.94265 4.5745 -6.09042
O 5.47725 -7.70948 4.91309
O 2.70597 -0.184095 -2.42911
O 0.404451 -5.12776 3.21569
O 8.36362 0.871152 9.22007
O -9.03744 10.2304 -8.60638
O -8.16041 4.71254 7.31585
O 7.2859 5.20615 3.95215
O -9.56762 -6.05067 -3.33741
O -6.28048 10.2128 -4.67505
O -6.0207 0.294315 -2.33741
O -8.2033 0.587428 -5.91471
O 10.3109 0.913388 -2.55653
O 7.35824 7.29308 1.52107
O 6.23792 -3.11354 -4.16907
O -9.36584 -5.68786 1.43685
O -4.02479 1.2318 -3.69031
O -9.96046 -4.42877 6.98725
O 5.46122 -3.53938 -0.965043
O 5.05528 10.3097 -3.3616
O 1.0809 5.66222 5.77395
O 1.5887 -6.08122 -8.08032
O 6.34414 -4.65457 -6.17177
O 3.07315 -1.79178 5.59152
O 0.189177 -8.82737 4.89715
O -4.15445 -3.22758 1.82553
O -0.705203 -9.23714 -3.11593
O 4.70042 6.25046 -2.74152
O 7.85703 9.08704 7.00273
O -8.10148 -9.97871 1.92252
O 2.36985 -7.11638 7.60277
O 7.99613 3.42985 8.28824
O -0.272439 7.19015 -8.03737
O 3.37799 -4.96206 6.76501
O 5.5611 -9.59448 1.14689
O -3.393 -7.15454 -7.16733
O 3.28781 6.80713 6.88669
O 0.121133 9.41094 -3.79815
O -10.3391 2.55723 3.65505
O 0.918719 -8.7802 1.03389
O 5.35341 -1.96161 -6.2846
O 6.76177 -8.59106 2.99988
O 9.87977 -6.65285 7.41161
O -5.84778 1.22517 -6.77162
O 0.313297 -4.65647 -1.8727
O 4.90066 4.49824 4.5113
O -10.47 0.456618 -7.32013
O -10.491 -0.201897 -4.85712
O -2.83517 10.3043 1.59843
O 0.011513 9.8041 -1.2669
O 5.62741 1.84963 -8.24084
O -2.34426 -4.04017 -7.19214
O -4.46726 -5.92254 6.11084
O 0.192768 5.52967 -3.67457
O -7.9373 5.88272 0.591876
O 1.94707 -6.50004 -2.85791
O -2.8227 -7.9129 -2.43327
O -5.39356 6.14121 3.39645
O 6.37908 -3.45656 -8.31785
O -6.18082 -5.84814 -5.62504
O 3.19656 2.20465 7.77007
O -1.6357 8.58056 -6.48224
O 0.780736 -1.72262 4.01424
O 8.27028 1.2927 -8.20935
O 6.0785 -7.42248 7.50907
O -8.95295 -0.183579 6.92663
O 5.52989 -1.53773 5.16859
O -6.98838 0.680073 0.815446
O 0.940842 0.0421923 -7.90605
O 7.92334 4.85727 0.689787
O -3.77917 -2.58278 -3.94491
O -2.17544 1.59091 7.09164
O -0.661609 -6.66206 -3.12825
O -10.3763 10.4328 2.82838
O 3.94617 -4.77394 0.525442
O 1.36482 -7.9404 9.86017
O 4.06177 2.82105 -6.09528
O -4.97068 -7.3174 4.01029
O -9.68254 -6.43822 5.32684
O -3.02697 2.22589 3.28578
