591
Atoms. Timestep: 1790001
Si -1.21545 -10.304 8.24557
O -1.26778 10.4463 9.97458
H -0.476663 -10.3003 10.4266
Si 3.15622 -8.27626 -7.40487
O 3.88211 -8.10763 -8.96201
H 3.52643 -8.67849 -9.63291
Si 1.32888 6.01452 -7.04709
O 1.23755 6.88463 -8.54001
H 1.28934 6.37629 -9.34089
Si -7.82938 4.22895 11.1726
O -7.02893 3.84928 12.6465
H -7.51519 4.0704 13.4321
Si 0.583322 3.49509 -8.56022
O 1.28864 4.48778 -9.73644
H 1.40858 4.14458 -10.6141
Si 10.4353 5.66322 11.8801
O 10.1376 6.02573 13.5601
H 9.23297 6.26853 13.7186
Si 0.746709 -10.2089 -7.96059
O 0.719318 10.4138 -9.61164
H 0.610688 9.48557 -9.78207
Si 1.85973 -10.1055 8.29652
O 1.99392 -10.3369 9.95342
H 2.51963 -9.70653 10.4318
Si -7.59304 -2.57214 9.4116
O -6.91715 -2.36452 10.9347
H -6.31344 -1.63857 11.0397
Si -9.8664 -4.78123 8.14387
O -8.73359 -4.57064 9.48344
H -8.9129 -5.10531 10.2479
Si 1.28228 6.15677 5.96913
Si -0.0152659 -3.40797 -6.8042
Si -1.79386 9.4132 4.21983
Si -8.34001 7.75191 7.84724
Si -8.1258 3.51132 6.80822
Si -8.07913 4.05456 -1.70245
Si 9.07478 0.84835 -6.7079
Si -4.27018 0.978018 3.98439
Si -3.91461 1.36483 -9.06808
Si 9.9494 -2.83141 -3.62568
Si 8.22325 -4.04573 7.91761
Si 5.61747 -4.6999 4.49106
Si 3.23683 -4.9933 -1.66096
Si 10.3412 5.30181 -6.46958
Si -10.0488 10.4626 1.67035
Si 6.25311 8.17632 7.4591
Si 4.43883 6.27896 -6.2699
Si -8.52625 -3.73885 -7.31586
Si 8.60369 5.07328 -4.07602
Si -0.676513 -8.76832 3.19574
Si 8.82686 6.72579 -8.50871
Si 8.35108 -9.43301 0.681235
Si 2.52325 -6.01519 2.52785
Si 2.9535 -2.62737 6.38643
Si 8.44908 -7.69637 4.88642
Si -8.71268 -5.93918 3.83953
Si 3.41456 -2.66003 3.47045
Si -9.71554 7.47869 1.03932
Si -0.472446 9.34391 -3.51333
Si -8.75428 -6.8889 -7.30884
Si -2.57334 3.92457 -8.76169
Si -5.92826 -8.06521 -8.27609
Si 10.0265 -1.79528 1.29262
Si -5.72113 -6.19214 3.52277
Si 6.14816 -2.87816 -3.77552
Si -0.675221 -8.99904 -1.88187
Si -0.706506 2.25562 -1.40897
Si 5.54735 -2.8649 -0.756826
Si 3.29567 -3.62102 -4.51187
Si -4.72259 -5.31099 -5.41335
Si -4.26184 -9.87948 -6.43242
Si -5.09279 -9.04405 2.22403
Si 0.732442 -4.99331 0.312432
Si -6.64158 4.77745 -4.29913
Si 1.73441 -5.8678 -5.99677
Si -5.62317 -3.75198 2.02682
Si 9.49506 -5.49913 2.85297
Si 2.23008 -9.81972 -0.767433
Si -7.15729 2.77717 -6.69396
Si -6.64747 9.59018 5.95868
Si -9.37156 -0.436424 5.45656
Si -0.459503 -7.05648 -4.37738
Si -8.10014 7.08556 -5.75477
Si -3.23567 6.67798 -7.29052
Si -7.23633 4.37194 -9.52291
Si -0.630669 5.06489 3.5998
Si 2.06021 -5.60688 5.71112
Si -5.80893 -2.48649 -2.54609
Si -2.99656 -7.98083 6.96931
Si 6.8994 1.04558 -1.84666
Si -5.74438 -2.85199 -7.09056
Si 5.82542 6.14967 -0.290812
Si -5.64516 -10.1519 -3.6302
Si -2.58527 -8.24068 0.661598
Si 6.86693 -6.91675 -0.602711
Si 10.09 7.78842 9.60329
Si 4.3018 2.23423 -2.23799
Si -2.39844 3.14514 5.5278
Si 5.51767 4.17394 -4.48201
Si 6.25835 -6.30665 6.93773
Si 3.17296 4.37442 -0.40979
Si -0.616991 8.36296 -6.4787
Si 8.01581 3.96549 -1.25988
Si 7.95369 5.89627 8.416
Si 2.28536 8.74691 -2.56017
Si 0.730791 -2.46408 2.04425
Si -6.42814 -4.94952 -0.643122
Si -5.79253 4.28571 0.478554
Si -2.5311 0.189654 -5.61805
Si -1.28179 7.76181 6.7335
Si 8.42705 -3.34398 4.8457
Si 4.12029 -10.2351 4.56837
Si -8.94697 7.10368 -1.97345
Si -1.64155 -8.36284 -7.01079
Si -2.36133 -4.79204 -3.32396
Si -9.02905 3.43283 2.73364
Si -9.29833 9.75072 4.52492
Si 8.26126 10.2222 8.88103
Si 8.80969 9.18619 -6.72298
Si -1.62302 -3.3689 3.94488
Si -10.3169 7.22154 5.37243
Si 6.1689 0.619024 3.54665
Si 3.26207 8.57727 6.59242
Si 1.77124 -0.278272 7.55471
Si 5.41637 8.53029 -2.44313
Si 8.79744 3.60443 10.2527
Si -3.55758 -6.24775 -8.27872
Si 4.64043 -0.716559 1.37305
Si -10.2779 4.50261 -9.33785
Si -2.79462 7.2155 2.68796
Si 5.54578 3.6314 4.26426
Si 7.07949 -10.222 3.38493
Si -1.95208 2.95941 -4.19277
Si 5.83385 8.83295 -5.39885
Si 7.83997 10.3024 -2.13382
Si 8.10076 -5.31325 -3.1405
Si 4.99553 1.74571 -6.48305
Si -8.12103 10.1905 -5.60627
Si -7.47494 -6.48221 -4.39994
Si -5.57129 -6.46249 6.74472
Si 7.62392 -3.75864 1.19678
Si 1.24606 -1.33082 -5.13737
Si 7.96123 -1.00062 8.29015
Si -9.18648 1.26555 -2.14649
Si -3.78926 5.67775 6.91972
Si 4.05377 1.51331 8.09843
Si -1.48117 6.62273 -2.31335
Si -2.97316 -2.66243 1.22019
Si -5.29639 7.10403 4.69015
Si -7.07079 -0.492543 -0.474216
Si -5.72108 -3.19372 6.97265
Si 1.82449 0.434439 1.81623
Si 10.3222 -9.55121 6.66735
Si -3.64301 5.45664 -4.35615
Si 9.78032 4.66817 1.28084
Si 3.76004 -8.06769 6.90506
Si -3.81251 6.51851 -0.28739
Si 8.32469 2.74651 -9.12531
Si -2.81594 -3.3663 -8.3152
Si 1.19112 -1.02119 -8.17649
Si -6.17014 7.14655 -8.26569
Si 2.92307 3.51771 5.97545
Si 6.38868 5.07362 -8.45697
Si -5.40421 0.128984 -6.72406
Si -2.71736 -1.81238 -3.19375
Si -3.30138 -1.44229 5.859
Si -8.2079 -3.0745 0.903613
Si -0.965397 0.573351 6.54654
Si 8.1869 -8.28831 -4.32448
Si -6.07644 8.45242 -1.64878
Si 5.51272 2.43094 -9.37311
Si 6.73121 0.0146983 -4.78956
Si 2.2803 -9.09594 2.32496
Si 9.54668 8.07309 -3.78417
Si -4.80556 1.25575 0.908733
Si 10.4768 4.14068 5.2449
Si -0.954096 -6.27266 5.20281
Si 0.680156 3.42715 1.08872
Si 2.88207 1.27121 -8.58778
Si -7.3433 1.57677 4.33639
Si -9.32155 1.0975 -5.24682
Si 4.42497 -8.02948 -2.23645
Si -6.21039 10.0972 -8.2688
Si 7.79555 3.42758 6.60119
Si -9.89499 -0.57134 8.57936
Si 1.41202 5.7199 -2.82619
Si 7.74082 8.04348 4.70619
Si 7.15087 5.74348 2.57487
Si -8.5019 -3.35747 5.60429
Si -8.26141 -3.50211 -4.1101
Si -7.22818 -10.1431 0.198644
Si -4.25303 -10.0586 5.10544
Si 1.52147 0.990997 4.87162
Si 1.57638 1.38505 -3.60274
Si -8.68798 -7.28111 6.63619
Si -10.3294 -1.56551 -6.49356
Si 5.30434 -9.04843 -5.14756
Si -4.6114 3.46179 -11.0704
Si -7.30945 6.06042 2.56822
Si -9.43864 2.26118 9.43206
Si -6.73833 -7.93942 -1.93217
Si 6.82359 1.67113 9.17661
Si -1.78278 -0.517527 -8.72716
Si 5.50592 -0.715727 6.33333
Si -6.3348 5.39469 8.62617
Si -2.29894 -5.4172 -0.363484
Si 0.758549 3.82881 -5.19912
Si -2.4597 -0.108971 -0.493603
Si 9.3792 -0.599395 -1.49864
Si 5.40325 -5.53424 1.84656
Si 9.14886 -0.439463 3.84744
Si 10.3225 -9.17824 -6.488
O -7.33421 -7.30995 -8.04682
O -6.7914 4.73954 10.013
O 4.59501 5.41554 -4.84902
O 9.15175 9.02738 9.59237
O -4.68813 5.53991 8.20898
O -7.58983 -7.44427 -3.19725
O 0.378892 -3.46447 0.769229
O -1.10891 8.36829 5.19516
O -4.84624 10.056 -7.40192
O 9.30777 -10.1204 7.76738
O 7.68981 -2.60868 8.56518
O -4.11654 0.97684 2.35162
O 6.06382 4.7942 3.24287
O 2.84265 -7.58696 2.33882
O 7.01543 -4.2414 -3.71585
O -0.362739 -9.10313 -7.60124
O 10.1486 6.9557 10.9243
O 0.449829 5.81785 4.5274
O 7.61422 -9.66248 9.75513
O -8.55413 2.23856 -6.12062
O -3.78474 0.749373 -0.181795
O 9.03039 8.21879 -8.05706
O -6.57119 -2.68813 8.27978
O -7.80664 -1.64277 0.331446
O 7.35038 2.46919 7.78435
O -2.46275 6.54085 -1.07239
O 9.46305 -8.49023 -5.26341
O -5.39064 -4.82078 7.04642
O -2.53875 -3.10983 2.70862
O 3.06775 1.63506 -3.12349
O 2.32077 -5.61868 4.06868
O -5.4796 -6.39555 5.09232
O -7.32524 10.3676 -7.08053
O 0.306953 -9.78187 7.97831
O -2.53678 5.35358 -7.96174
O 8.58035 -3.76898 6.36069
O -5.54315 9.48966 -2.79669
O -4.53224 1.90478 -10.4129
O 8.66597 -5.02983 1.53106
O 8.52278 4.84896 2.28286
O -4.6374 -9.97522 -4.9108
O 5.83757 -7.81875 -1.47381
O -9.92697 -5.75167 2.80738
O 7.43631 -6.97103 5.89565
O -1.06455 -5.59005 -3.96858
O -0.949605 -10.3453 -2.80306
O 8.77341 6.66764 -3.89293
O -4.81076 0.387868 -8.20287
O -2.31523 -7.26997 -7.97578
O 8.04011 -9.44103 -3.15628
O 0.543456 1.83423 -2.38526
O 4.71624 -8.45841 -3.73863
O -6.96533 -3.1026 5.99203
O 4.44072 5.33552 -0.172187
O 9.39336 -4.40952 -3.39767
O -5.77355 -3.93147 -1.72542
O -7.02471 4.07478 -0.479108
O 5.32359 4.07089 -9.21065
O 9.23758 -10.287 -6.99144
O -8.99877 5.22815 11.5937
O 7.73355 9.54419 4.07877
O 4.83727 7.84418 -6.19506
O -9.44101 4.30485 6.35509
O -7.99089 2.22833 2.97622
O -4.74613 -9.76102 3.58262
O 9.97251 -1.14091 -0.135016
O -0.148722 -0.424923 -8.82257
O 1.14449 1.84026 1.28894
O -6.57371 6.61926 3.82975
O 8.75213 -1.82271 4.46912
O -2.30302 -1.96626 -8.99276
O 7.68806 2.42381 10.2953
O 10.1365 3.10408 9.45485
O 6.63323 3.42698 5.46156
O -6.2837 -9.69737 1.43476
O -8.64402 -4.61617 4.66568
O 2.19767 -3.03598 2.47473
O -5.92567 -6.2669 -4.86498
O 1.21365 -5.78267 1.60708
O -0.986947 8.10352 -2.60391
O -3.39554 6.96714 1.18886
O 10.3871 5.71798 4.82497
O -2.68901 -3.96678 0.293615
O -3.96911 -0.398455 4.77042
O 6.2676 -4.13884 1.90391
O 0.6378 -4.83617 -6.57007
O -2.7787 -6.617 0.472357
O 7.89644 -0.0774682 -1.20305
O -4.48702 -2.2354 6.64341
O 2.0977 -1.79926 7.45048
O 9.2353 3.27525 5.91152
O 2.54421 -2.20525 -4.86394
O -4.77515 6.04252 5.79836
O -4.12738 0.162954 -5.8113
O 9.62833 -8.38116 5.78795
O 5.71746 0.240799 2.01387
O 9.48588 4.40386 11.4932
O 9.61592 -0.580848 -7.19683
O -9.45502 8.01931 9.00618
O -1.55429 2.05165 6.42061
O 9.32816 6.77451 8.56267
O 6.87899 5.13719 -0.996764
O 8.14567 -6.79179 -3.80763
O -9.04242 2.81997 -1.63943
O 5.31097 10.327 -5.20239
O 1.03421 -6.77882 -4.93125
O -10.0167 7.61088 -3.0694
O 5.20902 3.09374 -5.60855
O 5.76875 1.88806 -7.87559
O -7.03332 -2.64954 -3.57727
O 1.89253 2.48125 5.24806
O -5.48416 -3.96379 -5.90784
O -7.22328 6.72414 8.33505
O 6.31505 9.76303 -1.9923
O -6.86975 7.25565 -6.83438
O 8.74274 9.17547 -2.86204
O -2.51029 6.03921 -3.47869
O -8.9339 1.12479 -3.70778
O -7.50903 9.02869 7.20456
O -6.15033 0.457646 0.456057
O -4.30814 -2.92364 -7.80902
O -0.908345 8.98785 -5.02563
O 0.195677 -2.46557 -5.46416
O 6.89044 -3.72768 4.57285
O -6.83055 5.89443 -9.00104
O -5.15938 2.85203 0.887125
O 4.05551 1.73708 -9.64153
O -7.6613 2.61807 5.57136
O -4.43053 3.62984 -12.5938
O 7.93429 4.96911 7.12418
O 6.70556 6.88544 8.32461
O 4.07293 3.88113 4.89225
O 5.67503 -5.90227 3.42397
O -3.21529 9.80865 5.00807
O 7.49588 6.88458 3.64243
O -2.34981 -2.49222 5.16253
O 7.06853 4.54549 -4.48886
O -7.15476 -10.2644 -4.40268
O -8.19454 4.77569 3.04128
O 5.45285 5.64497 -7.29291
O -3.23534 2.14048 4.6244
O -7.9063 -5.02333 -3.82716
O 10.0199 -2.34985 -5.21258
O -10.4609 8.83882 1.48432
O 7.10143 0.685365 -3.38092
O 1.49956 2.26429 -8.56022
O 9.31823 -4.32218 3.94109
O 2.89265 6.06758 -6.73553
O -2.27663 -9.1734 7.79869
O 8.29848 -10.3849 -0.622368
O 5.58084 7.34183 -1.28617
O 10.38 0.58721 -1.92816
O 8.87614 -6.71612 3.65003
O 4.16999 -9.0301 5.63194
O -0.767321 3.81296 -4.93563
O -6.58898 3.86862 -5.64314
O 2.47814 -4.16609 6.3373
O 7.67563 -8.85143 4.09394
O -0.0416664 4.12076 2.34921
O 0.675365 -9.24951 -1.1004
O -7.76455 10.0205 4.91147
O 3.24376 0.102387 1.11007
O 4.62474 8.24645 7.4328
O -8.3468 -3.47042 -5.69959
O 3.74872 2.99222 -0.971758
O 2.87092 -6.88967 6.32205
O -8.25306 7.03268 1.71305
O 7.0567 -0.968688 6.86492
O 9.18073 7.78524 5.40716
O -4.98805 7.44612 -0.942317
O 6.98244 -3.46903 -0.32381
O 4.38877 -4.02752 -0.894233
O -5.27631 -8.6447 -6.92361
O 1.44669 4.97018 -4.28399
O 1.95852 -5.09502 -0.743326
O 7.56503 3.99577 -8.35906
O 2.8552 -4.86591 -5.46849
O 8.86124 1.71081 -8.005
O -4.59796 6.84168 -8.05258
O 8.06677 4.8139 9.5191
O -2.01829 -0.233803 -7.12731
O 6.79663 -8.5675 -5.21685
O -6.72534 9.53721 -0.569379
O -7.12786 3.91333 -3.02999
O -1.48436 -4.90209 4.44973
O 5.09725 -7.32642 7.41829
O 2.98037 -9.87489 3.45268
O -4.09349 -5.85021 -6.77593
O 7.26755 0.119573 9.15137
O -8.33758 8.62469 -5.38901
O -9.44412 6.42255 -6.38616
O 6.99272 2.28402 -9.93333
O -5.81337 1.3534 4.28667
O 7.121 9.41293 7.999
O 2.06253 4.24157 0.768599
O 5.71512 -2.33245 -2.28388
O 9.33476 -1.73716 -2.67094
O 3.7328 -6.52697 -2.10073
O -4.64745 -2.62007 1.52286
O 7.67512 -5.78159 -1.60212
O 5.56505 2.06983 3.6898
O -1.60714 -3.60701 -7.18225
O -8.93646 5.48369 -1.85627
O 7.72053 0.526695 -5.92443
O -3.90569 -8.99271 1.09214
O -0.12153 5.80218 -2.32595
O 4.24782 -1.65576 2.61283
O -6.04732 3.99074 -10.5108
O 9.83593 -9.52613 1.26701
O 5.33397 1.14568 -1.77992
O 0.356609 7.00603 -6.26348
O -5.76433 8.39468 5.42605
O 2.43687 -9.66922 0.787159
O -1.41114 4.03876 4.57479
O -4.84462 -7.01488 -8.80667
O -9.33534 -0.507296 -5.8245
O 5.08233 -1.73483 0.265683
O -7.98955 0.491715 -1.33667
O 10.2356 0.116559 4.8929
O 2.00552 0.597012 3.39398
O -7.64315 5.98268 -4.68608
O 2.33917 9.56381 7.50492
O -6.14731 -9.46035 -9.06459
O -6.07083 -1.36473 -1.42001
O 9.11353 4.18823 -0.0668148
O -1.66416 2.85043 -2.60792
O 8.58769 -2.55239 1.44145
O 0.776909 -9.00927 2.696
O -7.82933 -4.15765 -0.291169
O -9.51638 -2.92675 -3.31193
O -8.87719 -6.99083 5.08518
O 7.14804 -5.31414 7.86729
O -3.03443 -4.82367 -8.97854
O 0.202935 0.0492408 7.626
O -2.49031 -0.897645 -1.89257
O 2.83016 -8.9155 7.8504
O -9.33724 7.30395 6.55933
O 5.41468 -5.31451 5.92785
O 7.42531 2.48684 -1.33582
O -9.35879 -8.67985 7.10947
O 6.74386 -1.559 -4.46784
O 7.29666 6.36247 -8.92973
O 2.82766 -4.14226 -3.016
O 9.07848 6.04139 -6.9885
O -0.0709352 0.451933 5.15578
O 5.03104 3.36352 -3.1661
O 2.0741 9.65439 -1.25646
O 4.44196 -1.97238 6.56954
O -2.68881 6.91808 6.90341
O 6.51957 6.37901 1.17829
O -7.40415 7.60623 -2.18286
O -0.661784 -5.4881 -0.351129
O 2.42437 -6.94439 -6.99374
O 10.0041 -0.754276 2.49206
O -3.6019 -5.0292 -4.32457
O 9.7942 4.65191 -5.08597
O 3.8813 8.83526 -2.78565
O -2.78157 -9.46788 -6.75348
O -3.09511 4.26442 6.44762
O 7.88584 -7.931 0.0983536
O -2.29326 -0.955238 -4.5286
O -3.42617 -8.77393 5.6502
O -3.36001 4.06141 -10.1788
O -10.2841 4.40189 -7.70399
O -3.53039 6.20797 -5.79936
O 9.56209 8.66319 -5.37504
O -7.05628 -3.38317 -7.88888
O -8.91029 -1.71868 9.17692
O -6.27926 5.28889 1.60404
O -8.66811 2.60236 8.10318
O -9.22315 -1.97637 5.14
O 0.214105 9.5055 -7.24625
O -4.32301 -2.19105 -3.19522
O -9.79614 0.721011 9.49506
O 2.18397 -9.52838 -7.63839
O 1.30559 2.43084 -4.85846
O 4.8466 -3.35986 -4.52805
O -9.29236 -3.71326 6.99214
O 0.00458514 6.76711 6.86992
O -9.62572 8.21289 4.31412
O -9.48837 -6.14791 7.51964
O -1.96104 1.56092 -4.99949
O -5.20335 5.43951 -3.92599
O -1.17967 -7.71944 -5.65831
O -9.3502 7.62563 -0.518935
O -10.0974 3.33219 3.95561
O -2.25625 -0.40965 6.73447
O -2.73894 -5.4595 -1.89258
O 2.77784 0.598291 8.46526
O -5.5492 -8.85834 -2.6307
O -2.05278 -3.2609 -3.11812
O -1.99098 -6.81251 6.3863
O 5.22405 1.81154 9.16136
O 10.3622 6.16021 1.26784
O -3.38896 2.63613 -8.17188
O 0.890102 -2.55929 -7.87086
O -7.20243 -3.43419 2.10099
O 6.68559 8.00759 5.91149
O -7.2907 -6.21127 3.23407
O -0.256224 -2.78426 3.26781
O 7.20205 8.9309 -6.26783
O -1.76017 6.09954 3.0299
O -9.364 -0.278389 7.07126
O 3.70731 9.46571 5.34548
O 2.04866 4.7781 6.35853
O -8.55033 2.85879 10.6412
O 9.9287 5.93189 -9.40075
O 4.3925 -3.74197 4.06448
O -9.92299 3.76178 1.4893
O -5.2684 -4.6102 3.29116
O -9.48801 -10.0346 -5.85261
O 9.67319 -4.42165 8.58922
O -2.58139 0.574221 -9.4558
O 9.60383 3.42355 -9.82428
O -0.509605 -7.85942 -3.03799
O -1.10488 -10.1753 3.91557
O -10.015 -8.00666 -7.38863
O -7.36702 -8.98446 -0.950519
O -5.13984 -7.48318 2.68672
O -8.74136 -10.4018 0.774024
O 2.34081 4.87103 -1.74761
O -6.4036 -6.43027 -1.20906
O -6.401 1.35951 -6.49999
O -3.27015 3.83932 -4.40994
O -8.99428 -5.30607 -7.44113
O -0.967471 3.45863 -8.68132
O 1.34228 -0.606524 -6.58906
O -7.10802 -6.95593 6.96432
O 1.11943 -0.0381541 -4.06533
O -1.84164 -8.76255 -0.731401
O -7.23758 3.4715 -8.15319
O -1.358 1.0067 -0.650745
O 7.7805 0.401937 3.67578
O 5.35843 0.580551 -5.3659
O -2.47226 -1.26736 0.653668
O -1.64302 -8.43973 1.94594
O 4.25185 -8.57219 -6.2728
O 7.33494 -10.0315 1.79713
O 5.57124 -0.279279 4.79452
O -4.39725 -7.30197 7.39208
O -0.766449 -7.57263 4.28339
O 4.89019 0.504895 7.11389
O -1.20714 9.24862 7.51279
O 8.76659 4.34919 -2.64856
O 3.5618 1.50047 -7.15043
O -4.08997 7.16262 3.6434
O -2.19339 8.71187 2.88722
O -9.6872 -2.67175 -7.48472
O 2.62078 -2.22225 4.83277
O 2.3712 -0.240373 -8.88234
O -10.1731 10.335 5.71104
O 3.36626 -8.98571 -1.46035
O 5.5201 -10.3208 3.83105
O 5.95794 -6.26525 0.567428
O 3.83559 -5.40061 1.85274
O -8.15262 0.260576 4.62978
O 0.813441 -0.88891 1.69684
O 9.53489 -0.838332 8.26874
O -5.59752 -4.77369 0.737855
O -1.98947 7.79252 -7.13338
O 0.522838 -5.8377 5.80034
O 0.854515 4.39581 -6.94995
O -5.5034 -10.3393 6.10802
O 1.16174 9.42657 -3.48636
O 2.26674 0.283436 6.15531
O 2.3992 7.27239 6.09424
O -4.48281 5.06572 -0.213692
O 1.9398 7.20789 -2.73497
O -6.04995 -1.31655 -6.7208
O -9.57829 -10.4621 3.18609
O 10.1372 1.25377 -5.56517
O -0.197143 3.28156 -0.26393
O -8.83843 4.40891 -9.93062
O 6.03093 8.18645 -3.9321
O -8.30906 -6.90683 -5.68468
O -9.73259 -2.87029 1.26995
O -6.95329 4.35295 7.4623
O 3.62253 2.80604 7.20545
O -6.41681 8.63911 -8.89115
