585
Atoms. Timestep: 1790001
Si -2.65003 3.48688 -10.4983
O -3.10947 3.58223 -12.1259
H -3.38958 2.77078 -12.5328
Si -4.08121 0.692313 -10.0636
O -4.47199 0.333044 -11.6744
H -5.39779 0.275235 -11.8794
Si 7.74684 -8.26593 8.27029
O 7.60393 -8.77109 9.93125
H 7.36446 -9.67237 10.1125
Si 5.1683 5.50761 -10.1251
O 5.81207 5.7186 -11.6758
H 6.30224 4.9724 -12.0005
Si 1.98671 5.99511 -10.4729
O 1.61349 6.07286 -12.1085
H 2.2703 6.42642 -12.6968
Si 10.4402 -6.82458 9.07356
O 10.1586 -7.09088 10.7391
H 9.32949 -7.50033 10.9569
Si -8.99909 1.06354 7.44317
Si -10.3304 -1.4788 8.62828
Si -9.7899 9.32972 -5.97975
Si 5.00711 0.580653 -4.95181
Si 5.98523 0.647441 0.690591
Si -9.58144 -6.03443 4.81067
Si -9.39959 2.49013 2.50145
Si -1.56222 1.64376 2.10726
Si -2.30373 8.72709 1.19171
Si -3.24786 5.72361 -8.3408
Si -9.07322 10.3789 3.01757
Si 0.990446 -0.887376 -8.10093
Si 10.4076 0.585484 -0.913502
Si -7.06898 7.78469 -6.19641
Si 4.19369 -8.59308 -6.1537
Si -5.84975 -0.301584 -1.14446
Si 8.58981 7.44957 -6.156
Si -1.28029 -6.77775 -1.3086
Si 5.09205 -9.44691 1.65037
Si -1.12723 5.78809 1.2933
Si 10.305 -8.70889 -1.49937
Si 3.48287 5.49609 -3.53625
Si -0.00560389 9.56647 -0.56058
Si -5.56177 3.52815 0.128158
Si 2.49836 2.02323 4.56841
Si 7.70721 -9.16192 -3.17405
Si 0.243132 3.49333 -9.66996
Si 4.97976 -1.75486 -6.89697
Si 5.93478 7.43825 -7.71681
Si -5.38673 -2.05336 7.31904
Si -5.97644 -7.18754 -0.493653
Si 8.25378 8.60725 -3.20325
Si 2.3567 -6.11154 -5.87583
Si 1.52509 0.0528296 -0.757007
Si -6.90734 9.71825 -1.95364
Si 10.282 -1.66686 -3.00424
Si -8.77131 -5.85156 -6.92976
Si -8.79248 -6.22443 -1.02895
Si -1.39345 -3.05509 7.80814
Si -2.66146 4.13077 3.57523
Si -4.99248 9.61827 5.65503
Si 3.18241 -2.44595 6.65895
Si 6.24994 0.518898 6.01603
Si -3.90142 -7.89409 3.22229
Si -4.89726 2.95874 -5.07338
Si 7.71141 -2.9222 -6.41341
Si -8.42787 -9.03927 -6.45897
Si 4.87921 6.03184 1.18254
Si 0.612526 -6.65517 1.33463
Si -1.68878 7.7709 -4.4073
Si 5.74953 -8.0439 -0.979276
Si 0.202926 -3.06604 -4.32605
Si 6.85893 3.53618 1.87915
Si -9.16 10.287 6.25083
Si 8.70477 -7.53901 4.03213
Si -6.32619 -9.20588 1.95375
Si -2.88849 -9.73313 -7.11064
Si 9.8255 0.394951 3.27311
Si -2.58591 -6.70496 -6.68086
Si 7.39121 9.64603 1.54198
Si 1.30043 -9.72407 7.8318
Si 1.14357 2.56168 0.737383
Si 2.08648 -6.9378 8.19598
Si -4.17451 -5.46406 1.52653
Si 5.13621 7.35414 3.94122
Si 3.59759 8.20242 -2.05486
Si 2.12206 -2.06842 3.77055
Si 3.08775 5.19799 4.56545
Si 9.1902 -5.4697 -6.27319
Si 4.76544 -3.50248 -1.54677
Si -2.19677 -0.974657 -8.21563
Si -7.22778 1.28143 -3.60191
Si 2.19123 -3.29274 -6.82464
Si -2.84386 -2.36818 -4.49587
Si -9.08543 3.75373 -3.49006
Si 1.26843 -3.98574 8.59001
Si 8.78224 -10.1874 6.0029
Si 3.71778 9.64775 -7.25382
Si -7.74366 1.17361 0.41923
Si 0.557238 7.22766 -2.30393
Si -1.2066 1.1906 -2.10211
Si 6.35936 3.26089 -8.32037
Si -6.32416 -3.59344 2.12517
Si -6.10707 -0.5683 -8.01581
Si 8.31128 -1.85024 6.7942
Si -0.898498 -0.214014 7.16004
Si -6.62078 -3.54761 -7.73417
Si -2.19459 6.5268 8.77429
Si -8.68951 -0.674724 4.73157
Si -3.63986 5.40362 -3.52305
Si 6.94717 7.40108 -0.637286
Si 8.93932 4.20474 -6.76535
Si 1.78847 5.85092 -6.10267
Si -7.47176 5.5011 -1.28932
Si -1.78879 8.47198 -7.6239
Si -6.23116 4.90024 -7.30166
Si -0.898686 4.23154 -6.79249
Si 2.42332 1.46688 -9.195
Si -4.6401 -1.7998 4.12046
Si 7.2811 -5.17645 -1.11471
Si 6.01555 -3.88585 6.31084
Si 0.321002 -1.38783 9.80854
Si -6.23192 -4.33047 9.12716
Si -7.15042 8.01654 6.64144
Si -8.94842 3.59058 -6.62563
Si -1.29525 5.21194 6.16471
Si -6.02532 0.919343 7.45358
Si -5.9202 0.912757 4.40312
Si 3.52501 0.634882 7.30041
Si 4.71466 4.97499 -6.26995
Si -4.87762 -6.39507 -4.44953
Si -2.13388 -10.1888 -4.01454
Si -5.77229 -10.4614 -6.53984
Si -4.56566 8.26476 8.2221
Si -0.123288 -3.95716 2.8943
Si -0.224382 2.53029 -4.44871
Si -10.0043 -3.07271 5.94646
Si 8.64691 4.93109 -0.206069
Si 1.04346 1.43449 8.86558
Si -5.768 -3.2433 -0.901195
Si 2.51854 9.19335 3.77794
Si -9.18189 -4.97737 1.87251
Si -9.97179 7.43408 3.16317
Si 6.67905 -5.36818 3.62658
Si 8.55069 -4.10598 -3.72917
Si -1.11891 3.63782 8.75899
Si -9.87728 9.44298 -2.76612
Si -7.18133 -4.32875 -4.95243
Si -8.2769 -7.82506 7.06241
Si 4.47404 -0.0511605 3.39629
Si -7.99977 5.53224 4.86268
Si 5.35361 0.470889 -9.17533
Si -3.10398 -6.45705 5.91321
Si 6.81718 -7.20469 -5.419
Si -3.14667 1.19561 8.64503
Si 5.15645 -6.85373 6.99148
Si -5.40056 -7.06235 8.09702
Si 9.55478 -9.08318 1.51766
Si -3.34052 -4.63441 -2.33425
Si 3.35497 10.1687 -4.3337
Si 8.12966 8.27487 4.23788
Si -2.38328 -3.55299 4.91032
Si 8.70237 -4.26659 1.44737
Si 0.283334 -2.7614 -1.18102
Si -3.87418 0.0883752 -5.83515
Si -8.45165 0.474491 -6.3244
Si 0.715968 -9.64728 -3.07164
Si 0.0620251 0.223637 4.2482
Si 1.19223 7.08151 5.75567
Si 2.22262 -5.07432 -0.53972
Si -9.63653 5.32316 0.891549
Si -3.60081 -8.88767 -1.60159
Si 2.91019 9.44103 0.825592
Si -10.1051 3.28538 5.58046
Si -3.76623 -2.74554 9.69314
Si -8.51849 -3.60668 -2.21826
Si 8.07743 2.54679 4.75179
Si -2.3628 -0.601945 11.2441
Si 1.35521 8.13934 -8.36673
Si -0.119267 8.5543 8.13761
Si 1.59825 -8.59795 3.52972
Si 9.71037 -0.549337 -5.92891
Si -9.39542 -3.86854 9.09682
Si -4.80345 9.86629 0.277901
Si 4.62733 -5.541 -3.99262
Si -3.04112 -0.0916974 -0.16963
Si -4.29571 -9.76295 8.04777
Si -0.352847 -6.21202 -4.30996
Si 4.39055 -0.329102 -1.93894
Si 2.0062 5.24586 1.71676
Si 7.86524 1.90368 -4.90216
Si -2.21497 -2.96105 0.677839
Si 8.64072 -1.15617 1.02601
Si -2.7525 10.4259 3.82156
Si -0.0285811 -7.71225 6.03198
Si 2.18207 1.23906 -6.20501
Si 9.08287 2.92549 -2.29943
Si -5.73624 3.89314 3.27522
Si 4.48668 -7.39088 3.95763
Si 1.19316 4.1155 -2.06391
Si 2.97951 -7.48072 -2.35105
Si -6.49027 -9.01027 -4.02141
Si -1.53236 -10.2024 6.65616
Si -3.47579 -3.7478 -7.35628
Si -6.14968 7.32509 -3.31493
Si -2.62051 3.92182 -0.871104
O -9.55585 -0.130234 8.49974
O 8.23553 4.0974 -1.53502
O -2.2809 9.30791 2.78055
O 5.86276 -8.71363 0.459259
O -2.38105 2.61026 8.67392
O -4.89247 -7.88728 -1.45254
O -2.24126 -5.35709 -1.44528
O -2.96102 -9.21752 3.01604
O 0.504975 -8.09225 4.64249
O 0.544302 -2.72469 -2.78806
O -8.96542 0.142055 6.05832
O -3.12338 -4.29292 1.07389
O -4.92917 -2.03079 5.73605
O -1.8336 2.65055 -1.5193
O -3.89522 4.01765 -4.30763
O 1.06573 -2.77518 9.69235
O 5.14599 0.712484 7.16584
O 0.761686 9.9112 8.55512
O 4.92749 -7.40179 5.47205
O 4.72476 0.302809 -3.34736
O 7.34614 3.18512 3.39481
O -6.89611 -3.26706 -6.15292
O 1.69853 0.0683097 -9.10877
O 1.7872 1.09955 0.44958
O 7.06591 1.93796 5.79903
O 3.9489 9.36229 -3.10854
O -2.70343 -2.55282 -8.1814
O -2.9098 4.7965 -9.65699
O -9.00644 4.51199 5.55447
O -5.8068 2.29178 3.5833
O -0.919604 -1.28141 10.7933
O 3.49013 -5.2417 -5.09027
O 5.33341 6.36197 -6.64027
O -1.00356 -3.9187 4.2225
O -10.3909 -5.6599 -6.92875
O 9.85456 8.52733 -6.3583
O -1.27057 -2.83543 -0.677447
O -2.37354 2.6969 2.90963
O 10.1969 -0.258562 -2.26452
O -2.13306 10.0333 -7.73553
O 4.04141 -6.87391 -3.39547
O 8.97282 -0.726328 2.52625
O 3.08226 -7.45091 -6.36089
O 1.97453 7.90426 -2.25389
O -2.1741 0.0239752 -1.55768
O -1.48777 -6.98459 6.22784
O -6.02319 2.35024 -4.0904
O -4.17504 8.64114 6.66596
O -2.67958 -0.20779 -6.89812
O -5.70818 -3.19695 0.681503
O -1.33372 9.65097 0.316659
O -5.67154 1.36432 5.95085
O 1.78922 -10.4835 -3.94395
O 8.92313 1.15453 4.38895
O -4.12911 1.64059 -5.62211
O 7.99179 -6.46801 -6.27171
O -7.71749 -3.68188 -3.63442
O 6.51281 -4.26848 4.81045
O 8.10195 4.27495 1.11901
O -5.10224 -0.480352 -6.75918
O -2.77773 -9.65113 7.55512
O 9.62366 7.60989 3.97124
O 0.170331 -10.4392 -1.80347
O -9.34685 -7.46344 8.23968
O 7.97486 -9.48514 7.27375
O 10.2401 1.60697 2.2869
O 1.11554 -6.4411 -4.8437
O -2.75899 -5.22686 -7.41054
O 1.11327 3.28527 -0.686426
O -6.54322 -8.20174 0.697815
O -5.09118 -3.58747 9.95672
O 8.14112 6.42066 -0.305557
O -0.360057 3.50175 -8.13481
O -7.26076 0.0566563 4.33807
O -1.86361 5.14561 2.63936
O 0.0193871 -5.44819 2.35183
O -0.614735 -0.862923 -8.15877
O 1.11588 -6.93915 6.88471
O 7.94063 10.2366 -3.42112
O -4.08712 9.91438 4.4331
O -7.30646 -3.60237 -1.17609
O 5.15239 7.04017 2.38633
O 4.52228 5.96159 4.58147
O 0.663186 5.67438 -1.96633
O -5.34983 0.287738 -9.14178
O -10.1482 -10.19 -1.95251
O -2.6229 6.57886 -4.06087
O -0.984677 7.60734 9.05437
O 9.79039 8.57332 -2.69378
O -1.24966 -2.31831 -4.68173
O -5.75163 3.7982 -6.19248
O -6.15541 7.98713 7.95259
O 6.67988 7.6191 4.45832
O 7.68738 -3.38152 -4.86109
O -3.79002 8.68056 0.670832
O 1.77116 -8.47222 -2.63182
O 1.39848 2.4939 -9.97335
O 4.79446 -4.37039 -2.95678
O -9.12168 10.2436 4.63971
O 5.59308 -7.85096 -6.15881
O -7.42662 0.0432461 -7.46036
O -5.6932 -10.0068 -4.995
O -7.82582 -4.19518 9.36432
O -2.27729 5.04756 -7.16593
O 1.09277 -8.00654 2.10873
O 0.950982 -1.43102 -0.518163
O 0.495078 5.72636 1.39207
O -8.22385 -5.41209 -5.47252
O 7.94026 -4.94236 -2.51695
O 0.964282 -4.06484 -0.576905
O 1.92419 -10.1671 3.64608
O 4.06671 6.73297 -2.62959
O -0.656332 -1.53449 8.16654
O -6.62026 0.454253 -2.35003
O 3.49971 -4.14343 -0.759179
O -9.82322 2.31496 6.81531
O -6.64278 6.41138 -6.86335
O 0.473322 3.38565 -3.23908
O 3.64112 -2.61223 -6.73461
O -9.80902 -0.297003 3.6986
O 10.3699 3.5255 -3.10696
O -4.21669 -6.60525 7.02598
O 8.36797 3.30817 -5.5339
O 2.81597 -0.0675485 -1.66676
O 10.1961 -1.31075 -4.58762
O 1.08761 -0.850683 3.71748
O 5.512 0.0733863 4.66036
O -2.71609 0.456124 9.97033
O 1.01074 0.0196959 9.76687
O 8.13128 2.17452 -3.34392
O 4.90137 8.67016 -7.66936
O -3.04368 -1.60412 0.499475
O 2.21738 5.92257 -4.5153
O 2.41371 5.5976 3.2006
O 7.40318 -8.31937 -4.44622
O -9.0434 -5.85297 0.482494
O -1.2162 9.35019 7.18073
O 7.20746 7.88406 -2.176
O 2.61443 8.72923 2.24897
O -2.995 -3.33035 -3.21461
O -3.08027 -4.93706 5.3323
O -8.68888 -7.05657 5.6963
O -6.15841 4.63807 -0.87991
O 2.29461 -2.39613 5.33518
O -2.93756 -0.332723 -9.47452
O 5.67136 6.54336 -0.11257
O 9.83463 -0.456795 0.180261
O 3.46683 1.20052 3.50095
O -1.74636 8.05391 -6.04336
O -1.10017 1.46583 -3.6342
O 4.67413 -1.90575 -1.72169
O -5.43516 -8.33081 3.04206
O -6.89319 6.7644 -1.98396
O 9.25311 -1.50963 8.07215
O -5.77988 4.02529 1.64367
O 8.63273 -8.92651 4.91864
O -5.79529 -2.51541 3.19034
O -4.44967 -10.0493 -7.26709
O 6.24848 -2.68579 -6.93306
O -2.36127 0.317692 7.50087
O -3.53781 -7.43248 4.69716
O -2.11323 9.2646 -3.81069
O 3.57998 5.64694 -10.1104
O -3.59065 -0.924175 -4.59304
O -6.27216 -0.709433 7.46707
O 4.03476 8.61347 4.22824
O -5.79031 8.7933 -2.88662
O -2.59141 -9.91773 -5.50879
O 1.75327 7.41625 -9.74027
O -9.072 -5.81057 3.28936
O 6.19547 -4.05312 -0.79695
O -10.4588 3.83587 -7.03278
O 3.68274 8.7093 -0.487223
O -3.33175 -2.62508 4.03842
O -0.248086 2.31006 1.44191
O 2.4075 1.98395 -7.62663
O 6.04345 -6.0869 -4.53594
O -8.50012 -9.40008 6.81234
O -6.36677 8.89635 5.57505
O 6.415 -7.48579 7.81225
O -7.37791 6.57023 6.00408
O 8.94799 -7.9981 2.51562
O -8.58603 2.02586 -6.44251
O -7.87602 -4.00603 1.92884
O -10.2336 -9.72387 2.39354
O 5.02501 -8.49579 2.95394
O -1.60513 7.29616 1.19164
O -5.00435 6.20132 -3.66642
O 9.07961 -8.57871 -2.49399
O 7.23031 -3.03456 6.84325
O -4.82096 -0.243387 3.98132
O 2.4091 -3.46052 7.65448
O 3.49888 9.32222 -5.65323
O 1.56899 -8.44607 8.72658
O -5.61754 -1.80064 -1.56684
O 3.69587 -6.93201 7.69194
O 5.75423 6.67512 -9.13927
O -5.0315 -10.1231 6.6193
O -3.81125 -5.8546 -3.36338
O -4.47697 0.316588 -0.649469
O 2.04003 -4.95108 -6.93785
O 2.92677 1.19059 5.92081
O 3.73147 -10.2141 1.1804
O -4.2274 4.34462 3.61839
O -9.33587 3.98139 1.72768
O -1.78231 -10.279 5.09943
O 8.62877 -2.74002 0.994334
O 1.41361 -3.00812 -5.41344
O 8.35091 -5.1938 0.160555
O 6.36898 -6.50978 -1.06081
O -6.13742 -3.41251 7.75191
O 1.51779 -0.149763 -6.7093
O 6.21646 -0.165232 -10.3435
O 1.95904 3.68547 1.58519
O -5.66348 -5.80829 8.95225
O 5.19246 -5.97062 3.41436
O 1.52236 -2.36307 -7.95161
O -6.23194 9.73429 -0.515416
O -4.60262 -4.15186 -1.53069
O -0.201909 8.07833 -1.17806
O 0.909515 4.97906 -9.8524
O -3.0728 5.00975 -2.0408
O 9.97699 -6.72869 4.62605
O -0.687857 4.20539 7.28765
O 7.59696 -4.73718 2.49048
O -1.41231 -6.63894 -5.4626
O -7.18071 -6.47217 -1.17857
O -8.41955 2.27065 -3.20053
O 3.55093 -1.41695 3.40114
O 8.92963 5.84035 -6.38932
O 8.53178 -4.16921 -6.99907
O 5.15497 -0.852894 -5.60671
O 6.53985 -8.88538 -2.09762
O -9.59736 -10.1952 -6.5585
O -3.9942 3.47228 -0.205788
O 2.35262 9.42094 -8.02312
O 2.3723 -9.93188 6.75376
O 9.23708 -2.8863 -2.89148
O -3.64606 7.21419 8.91883
O -6.80491 -9.82203 -2.6844
O -1.09568 3.21367 -5.56116
O 2.9399 3.55574 4.72349
O 4.12185 -9.81666 -7.21434
O -9.69688 9.52759 -4.38749
O -10.2327 6.53756 1.80477
O -2.36061 -3.35194 9.01055
O -4.72675 1.26149 8.28917
O -5.97591 8.98076 -6.57477
O -9.69142 -2.89908 7.60051
O -5.75668 -7.59792 -3.94692
O -9.15903 1.10126 -0.423227
O -0.537888 -0.427085 5.62828
O 5.25195 0.105419 2.01729
O -10.2222 -5.20367 9.01311
O 3.95018 1.18005 -9.59435
O 1.93142 -5.94028 0.722106
O -4.46255 9.84893 8.8418
O 7.93759 8.8712 2.75273
O 9.57092 -2.37304 5.82918
O -0.572024 -6.71442 -2.78863
O -3.98677 -10.059 -0.601241
O 4.69535 -2.9649 6.41658
O -0.273422 8.21196 -8.17746
O -2.41381 0.949584 0.882435
O 0.154673 2.75174 9.23478
O 7.08614 8.72761 0.231722
O -2.78063 7.28855 -8.18748
O -2.12756 4.31767 5.10438
O -8.86266 4.14019 -5.06887
O 5.6083 3.87611 -6.99198
O -1.65588 4.80963 0.13515
O 7.30901 -0.325241 0.570356
O -9.39124 8.86244 2.68643
O 2.88222 -7.64825 3.81087
O -9.39864 -2.28896 -2.26034
O -3.43536 -3.19093 -5.7967
O -2.11795 6.15741 7.18907
O -7.7709 -4.79631 -7.92034
O -9.63367 2.65684 4.07487
O 8.45758 -10.2064 1.24678
O 9.94849 -8.66687 0.0266555
O -2.06618 -2.88535 6.38852
O 0.939794 1.58504 4.4497
O 2.3316 6.00516 5.72412
O -9.59803 -7.49049 -1.52911
O 2.80604 4.48597 -2.49666
O 9.09528 -7.34142 8.34199
O 10.2721 -4.48456 1.94989
O 7.41516 7.76725 -7.23642
O -1.03156 0.534669 3.10958
O -8.40358 9.1838 -2.06491
O 10.2688 10.493 6.57912
O -3.42804 2.20417 -9.92968
O -4.85034 5.26504 -8.05782
O 0.386153 5.1102 -6.32316
O 1.72941 7.16477 -7.07928
O -7.88395 -8.85141 -4.92438
O -2.43855 0.174314 12.5567
O -9.99849 -2.50801 9.78063
O -8.90287 -2.21067 5.21026
O -2.47814 -8.15413 -7.39122
O 2.27768 -6.0629 -1.72954
O -7.67217 0.375997 -4.85808
O -8.3534 4.75792 -2.47882
O -6.89842 4.6949 3.98444
O -0.305463 -4.59494 -4.33041
O -1.05034 -3.13583 1.83237
O 0.1938 0.743071 -1.48616
O -8.34684 5.67875 0.0258121
O 5.73015 4.09315 -9.53758
O -4.1617 -1.89879 8.34709
O 0.115961 0.86006 7.71363
O 8.25211 9.49793 5.2882
O -8.9323 6.52332 3.99396
O 9.32523 3.41093 5.33405
O 1.39174 9.70247 0.2421
O -6.88047 -0.119346 0.140148
O -8.5164 -7.47999 -6.98894
O 8.59329 -1.5498 -6.55322
O 8.89263 0.78619 -5.4883
O 2.62161 1.40574 8.32255
O -6.58021 2.27891 0.0876669
O -0.180429 6.13347 5.45584
O 1.77554 -5.52442 8.91807
O 9.4276 -5.04802 -4.74389
O 3.13608 5.05305 -6.6619
O -8.47049 8.9727 6.92473
O -0.624055 -9.55543 -3.90993
O -3.12628 -9.44353 -2.97513
O -6.45642 -2.08652 -8.42115
O -5.84176 -5.14325 -4.71177
O 10.2381 4.87772 -0.126384
O -8.282 1.61642 1.85276
O 1.08578 1.94866 -5.23171
O 3.31275 5.79257 0.899382
O 4.10659 -8.03574 -1.2717
O -0.340056 -6.8457 0.0124609
O 6.46039 2.19084 1.07633
O -5.24028 -10.3719 1.61987
O -0.1619 -9.26411 6.86075
O 3.21274 -0.954801 7.25523
O 4.58457 4.92447 -4.60504
O 1.24806 -3.18699 3.09406
O -5.29641 -4.87592 2.55967
O -7.69215 -9.8625 2.5078
O 3.67102 1.07992 -5.58013
O -6.8192 -7.45845 7.45479
O 0.901737 7.74158 7.21821
O -7.50345 1.47445 7.86301
O 5.56094 -5.30073 6.90039
O 5.64352 4.65592 1.70721
O 1.51365 8.28101 4.77223
O -1.81257 5.0114 9.39769
O -7.0875 7.43575 -4.61135
O -3.4591 -6.64643 2.29624
O -0.301607 7.43691 -3.73486
O 7.91517 3.83943 -8.00283
O -9.84986 -0.237464 -6.51687
O 5.14508 0.458821 -0.66436
O -2.32121 -7.98573 -1.19272
O -8.55365 8.44774 -6.44678
O -4.87855 -8.42804 8.65241
O 4.00434 -9.47898 -4.82341
O -3.37966 -1.8002 10.8889
O -0.146121 -3.96392 7.9557
O -3.96185 -6.74954 -5.73016
O 6.00203 10.2465 1.99213
O 6.20011 1.69635 -8.44706
O 4.91277 -0.656142 -8.03892
O -9.3052 -4.90787 -1.85348
O -1.0803 3.22669 -10.4702
O -5.02835 -3.95239 -7.81605
O -7.14778 -9.80066 -7.02305
O -7.77791 4.23927 -7.58232
O 6.36642 1.45687 -5.09484
O -5.04985 -6.19368 0.354394
O -9.76716 -4.63207 5.57671
O 7.52687 -6.55129 4.19633
O 7.42495 -0.552448 6.41044
O 9.58415 1.94445 -1.18453
O 8.14988 7.75602 -4.6212
