582
Atoms. Timestep: 1790001
Si 4.6291 -7.37135 -10.1588
O 4.57549 -6.95128 -11.81
H 3.84908 -7.32959 -12.2913
Si 4.19751 -10.5015 -10.0848
O 3.79144 10.1436 -11.718
H 3.76792 9.21402 -11.9123
Si 3.97799 -3.49656 -7.65486
O 5.17053 -3.11157 -8.81094
H 4.8475 -2.92395 -9.68442
Si 3.05248 -0.773276 -7.78142
O 3.03675 -1.31398 -9.38354
H 2.32869 -1.02191 -9.94554
Si -7.45936 -8.45125 -7.41073
Si -0.177145 -7.53772 -8.74497
Si 9.76579 -0.78609 -1.61677
Si 7.39479 1.11891 -1.55794
Si 5.71508 -5.15582 6.70154
Si 9.79157 -6.25296 -8.19707
Si -0.451087 3.92429 5.5722
Si -0.694982 -4.61847 6.35549
Si 1.56554 1.00643 0.501879
Si -3.68908 -0.218205 -4.44766
Si 3.31953 -8.10632 -6.13498
Si 3.03812 8.85155 -2.48617
Si 9.7762 -6.68405 5.32731
Si 3.05049 6.80604 4.24874
Si -4.81277 9.18892 2.6522
Si -8.64057 -6.82972 -0.759423
Si -3.76511 8.69328 -6.06061
Si -8.45777 -0.0862658 -6.25308
Si 3.0136 -4.00098 -2.89399
Si -8.697 0.150083 -0.131111
Si -5.28351 -4.58969 -5.86045
Si 3.28359 3.73745 4.48384
Si 5.67955 8.32903 3.69161
Si -8.031 6.00883 7.29257
Si 8.13881 4.90792 6.10766
Si 6.72932 -9.9418 2.66561
Si -5.19237 1.59186 -1.01319
Si 6.94922 -6.52958 -8.26622
Si 8.3447 4.33286 3.17042
Si -9.90059 5.60614 -4.6809
Si 2.04495 -2.6564 -5.552
Si -0.376961 -4.48882 -5.52556
Si 2.37034 -9.69844 0.773428
Si -2.27861 0.836591 -1.72659
Si -1.83891 -8.31063 2.93359
Si 6.04699 6.70917 -6.48671
Si 4.98838 1.18007 3.83554
Si 6.45861 -4.15534 -6.10627
Si -10.4191 -9.10737 -7.029
Si -8.89758 2.99318 -1.55471
Si 0.809297 8.87048 4.43492
Si -3.19099 -8.70768 8.20954
Si -10.1005 3.80203 7.22007
Si -1.45357 -1.68198 6.72907
Si 7.15676 -6.49983 8.8311
Si -5.35316 -0.287566 1.41597
Si 3.18683 7.4129 -5.22468
Si 5.38706 -0.500372 -3.36447
Si -4.02266 -3.27198 -1.12662
Si -5.95797 -7.54721 -4.76842
Si -5.28361 3.70535 1.17915
Si -4.34899 0.987615 5.22858
Si -1.39238 -6.05533 -0.545776
Si 5.96341 0.224109 1.03078
Si 2.43948 -6.01912 -8.29037
Si -8.37175 5.87858 -0.148748
Si 0.37489 2.27286 -1.95999
Si 1.81297 1.23011 8.24981
Si 0.474598 -8.47203 -1.47975
Si -6.15165 -8.19424 -1.70878
Si -6.22499 -5.87827 -8.69574
Si -5.67031 -10.1342 7.28242
Si 4.68428 -8.08492 -0.613951
Si -3.31764 -3.56398 3.70752
Si 6.41226 7.43116 6.6954
Si 9.94248 0.149271 -4.54534
Si -5.25681 6.12052 5.79455
Si 0.651299 -1.40731 8.87951
Si -9.95469 5.23823 2.49092
Si -6.10377 -2.91098 2.66963
Si 6.24008 -9.23801 -6.75781
Si -0.544585 7.32 -2.66405
Si -6.41978 2.6338 -3.44725
Si 3.95149 -9.69946 6.20868
Si -3.52712 7.45557 -1.73919
Si 8.06041 -1.35734 -6.61268
Si 9.72462 1.02949 7.35464
Si 1.56477 -7.1992 8.67061
Si -2.46787 -0.848376 -7.16655
Si -4.51799 4.95598 -3.58623
Si 6.0534 -3.61717 -3.0966
Si 1.59096 -2.86669 -0.443626
Si -9.13564 2.83548 4.29497
Si -2.29535 4.10452 -5.69054
Si -3.74535 8.89904 5.57104
Si 6.58786 6.23686 1.53828
Si -4.46972 -6.13955 0.0461674
Si 3.74024 -0.55981 -0.712661
Si -0.843024 5.05195 2.60781
Si 7.53724 -3.64203 8.46469
Si 1.41444 -6.67688 5.52054
Si -7.86269 9.21786 -4.99923
Si -7.65492 7.40859 4.81216
Si 7.62833 2.1378 5.15479
Si 3.29395 6.86081 7.41698
Si -8.16809 -4.20315 0.760972
Si -8.80261 8.25884 -7.87768
Si 0.280962 0.760538 5.43753
Si -8.47603 -8.03281 5.11504
Si -9.16563 10.2254 0.664822
Si -3.09706 -6.40724 -8.78621
Si -4.07725 -3.1848 6.7576
Si 0.920157 9.14804 -6.35296
Si 9.51711 9.21688 -8.32444
Si 3.93399 -5.28382 4.17606
Si -6.37669 2.00243 3.32158
Si -6.37752 -1.43186 5.59748
Si -2.60289 10.5042 0.958938
Si -4.89036 -7.39514 2.80808
Si -3.33876 -9.32407 -4.63183
Si -3.90794 1.76285 -6.76763
Si -0.373335 -9.62563 8.32513
Si 2.01632 -9.2003 3.89496
Si -3.44533 -5.80692 7.43544
Si 2.95121 -7.16373 -3.07753
Si 7.40161 -1.91079 5.3321
Si -9.90074 0.240928 2.78403
Si -6.84471 2.62089 -6.60748
Si 8.92999 7.76628 -5.72162
Si 0.33535 2.55829 -4.9553
Si 6.42854 9.12308 -8.5703
Si 6.20523 9.06367 -2.25477
Si 8.57218 -6.48451 2.59032
Si -9.49282 -1.16297 5.66818
Si -7.92109 8.9744 7.33589
Si -0.805075 8.03597 1.93266
Si -1.69655 -3.74048 -2.78313
Si -6.4021 -1.85024 -4.46947
Si -6.8902 -2.10021 -1.38041
Si 3.59868 5.61869 0.649973
Si 6.87413 10.2322 6.57762
Si 1.637 9.36582 7.41807
Si -3.29315 3.62571 5.55658
Si -9.40612 10.0594 -2.45444
Si -2.55833 -0.435964 2.9382
Si 4.57134 -0.165421 8.07273
Si -9.98245 8.21015 2.86251
Si 2.00807 4.08846 7.32897
Si 2.56228 4.54392 -4.9705
Si 9.9774 -8.69849 -3.84815
Si -6.0675 6.96218 -5.07326
Si -9.99504 -9.95006 6.79814
Si -2.71708 -3.77837 -7.3767
Si -1.63588 -7.30015 -6.20332
Si 4.40274 -1.2039 5.25317
Si -10.3801 7.09784 -2.03679
Si 7.58828 -0.755262 8.30355
Si 9.72621 -3.83554 1.48276
Si -10.0148 -4.53516 -6.08066
Si 1.69049 3.75041 1.99076
Si 9.96475 3.11809 -3.66177
Si 8.75286 -3.84857 -1.49204
Si 5.57602 0.520089 -6.47208
Si -1.82296 -9.78471 5.69639
Si 9.15857 10.3222 4.43606
Si 7.31847 -9.66737 -0.418861
Si 1.99722 8.21307 0.427432
Si -0.849573 -5.30143 2.44656
Si -7.78736 5.65938 -6.98453
Si 9.64946 -3.70275 6.11571
Si -5.75901 -7.2379 5.79162
Si 9.9327 -8.41539 0.453077
Si 5.54 3.61461 -5.68125
Si 5.52854 -7.06063 2.15727
Si 4.4133 -7.28912 8.29653
Si 7.24668 3.90093 -3.00223
Si 3.01906 -2.54027 7.39031
Si 1.14454 -4.27257 8.92688
Si -2.69362 2.65572 2.46482
Si 1.7197 5.15226 -1.9132
Si -8.80775 -4.61782 -8.66124
Si 0.697934 -0.81173 2.9011
Si 7.74467 10.3788 -4.43728
Si 8.78928 -8.52668 7.73536
Si -5.40189 6.72587 0.794451
Si 8.50486 -1.04006 2.46389
Si 0.653244 10.181 -3.42559
Si -6.28297 9.87808 -7.4285
Si -10.254 -5.7413 -3.15351
Si -10.178 -2.09101 -7.60709
Si 0.474038 -0.234794 -6.56668
Si -4.03185 -10.4726 -1.80313
Si -7.10788 -9.72744 2.78484
Si -1.18955 6.93274 -5.79887
Si 1.68432 -9.79445 -8.37122
Si 7.61697 6.39246 -1.31658
Si 1.80826 -3.67195 2.5721
Si -1.32213 -1.87031 -0.639998
O -5.15633 5.23885 1.27266
O 9.72858 -4.78266 -2.35285
O 0.418868 7.98028 0.866967
O -5.53365 -2.52315 6.48782
O -9.0618 -0.955493 -7.48236
O -1.0359 -4.04078 -4.14052
O 6.14438 0.00526937 8.45994
O 8.33517 -7.55839 8.91639
O -3.174 -7.08406 8.4297
O -6.25977 6.66827 4.66285
O 7.0338 10.0258 -1.28372
O 6.62829 0.286186 -2.78086
O 2.87683 7.0291 1.02174
O -1.5628 5.41995 -6.28903
O -0.885874 -3.06132 5.94404
O 2.78287 -5.99531 5.07352
O 3.50207 -2.39074 5.83811
O 2.36099 -9.10944 -7.00673
O 1.42553 10.3093 4.07045
O 3.40176 -9.30422 4.81163
O -4.75025 -3.72573 2.90591
O 6.39727 -4.35527 -4.53329
O 6.36148 1.25125 4.71443
O 7.37802 -2.843 -6.29021
O 9.20407 -2.40776 1.98574
O -1.2204 1.99281 -2.07328
O 0.88537 1.23283 -0.906935
O -5.31293 7.84682 1.95798
O 7.36423 -4.94955 9.36574
O -3.92233 -4.3363 7.82067
O 5.32918 9.42621 -9.72562
O -2.71244 -2.66214 -0.344457
O -3.94377 2.91985 1.55768
O -10.0354 -0.61067 -0.68115
O 4.73656 -8.95007 -10.0039
O -10.2294 8.66016 -2.48785
O -1.30956 6.52762 2.20013
O 7.42309 7.06801 -5.78194
O -1.66816 -7.0204 -9.41692
O 9.65334 4.45097 2.22604
O -8.84541 -8.88855 6.43708
O 1.624 -7.57569 -2.22852
O -4.39229 4.81661 5.58848
O -4.86349 9.8358 6.3828
O -5.63324 3.02728 -0.313402
O -2.0917 1.23188 2.41473
O 8.22096 -3.27799 5.29048
O -3.21273 0.279326 4.33956
O 7.01049 -6.41077 2.16357
O -9.87369 1.76991 3.3728
O 7.18861 -0.696057 1.61373
O 1.20391 -1.33007 -5.61289
O 2.71564 -3.00277 -4.13017
O 4.62987 -6.26201 3.15805
O -8.91392 0.0814176 1.46975
O -10.0227 -7.44699 -0.278867
O 1.97101 -3.69575 -1.72149
O 2.58346 -3.90877 8.1314
O -3.61077 1.43397 -1.16491
O 2.28539 8.38912 -1.14034
O -8.9254 5.61455 1.32672
O -6.34536 -7.81379 -3.25585
O 4.21667 -0.376994 -2.23166
O -5.38997 2.29014 -7.1751
O 8.76195 -6.87616 4.0699
O 8.01267 9.21885 -9.00965
O 8.97459 -3.7651 7.6103
O 5.78656 -7.24416 9.16729
O 3.15313 -4.17695 3.2904
O 10.0892 -7.74421 -7.67573
O -9.97663 -5.69891 -9.00642
O 1.02657 0.139682 4.15584
O -8.03005 7.45283 7.95484
O -7.82003 1.32546 -6.72145
O 9.38977 -5.08457 2.37415
O 2.98535 -4.5611 -8.18542
O -9.82103 -7.23869 4.79333
O 8.23458 -9.91229 3.37771
O 1.79091 2.80589 8.2516
O -9.31217 9.67954 7.04607
O 8.40041 -6.29644 -8.88746
O -8.5176 6.42488 5.76812
O 9.63758 0.0754131 2.29844
O -6.85504 10.0721 7.86313
O 3.41156 0.838035 8.4775
O 4.10486 -1.72466 8.27264
O -1.86995 -9.51301 8.84485
O -6.06307 -8.49202 2.57042
O -5.81589 5.75327 -4.14767
O -1.73224 3.87805 2.00541
O 9.77399 -5.25521 -6.94575
O -9.62748 -0.728964 4.07462
O 3.00364 -2.26958 -6.98255
O 10.3182 -8.92435 -5.44626
O -5.55885 -5.99986 -5.03392
O -0.600694 4.76812 4.17487
O 4.59773 9.08268 -2.1119
O -9.01254 -6.03675 -2.18513
O -1.24957 -3.7752 -6.74061
O 8.83675 -0.713875 -5.34313
O -5.19469 -7.06496 -1.05743
O -1.07223 3.30693 -4.94819
O -0.954355 -5.42101 0.83571
O -0.938647 -0.938243 2.79023
O -8.55294 6.71855 -8.00657
O 9.99218 -5.13904 5.64955
O -9.65842 -3.78609 1.20338
O -9.94802 -5.11708 -4.57625
O -5.96413 -3.30135 -5.176
O 9.46093 1.68995 -4.22323
O -7.32371 -4.86523 -9.31971
O 4.39577 -8.33834 7.05698
O -0.619121 -7.96779 -7.26536
O 0.857154 8.89873 6.03116
O 6.5424 1.11411 -0.218818
O 0.563965 6.32276 -2.01244
O -1.06082 -6.90885 2.85889
O 9.01745 -4.12179 0.0511687
O 0.913794 3.75582 -1.57371
O 1.43799 3.62004 -5.51915
O 6.58747 9.70657 -3.64143
O -9.23998 4.25499 3.54984
O 1.7076 0.0243266 -7.62354
O 10.0526 9.21109 3.64777
O 7.47414 6.24253 6.71993
O -6.40016 5.8146 6.97419
O 0.197268 1.16246 -5.8155
O 4.84196 -7.12885 0.693767
O -9.36075 6.91492 -0.863449
O -1.85977 9.10343 1.30452
O -4.73609 -6.41936 -9.14142
O 10.1038 -9.45197 7.96109
O -3.05373 -10.3665 -0.543689
O 1.63609 -7.09052 7.09025
O 7.61927 6.41259 0.340395
O 4.4457 -0.219162 6.4457
O -5.45712 0.447303 0.070614
O 5.91078 9.85394 3.22765
O 4.80458 -8.64426 -6.36557
O -6.41673 3.111 2.15715
O 6.25418 -3.8033 7.34613
O 0.867917 2.02805 -3.51495
O 10.3431 2.45051 7.85916
O 7.51225 -2.14433 9.11782
O 3.06322 -7.55729 9.03039
O -3.97326 8.88853 3.98148
O -4.81284 9.13016 -7.25818
O -5.02162 -1.01175 -4.31341
O 4.12639 7.83856 3.6853
O 5.90185 5.02361 -6.41783
O 0.619606 10.0623 8.4201
O -4.80167 -6.43532 6.75274
O 2.36749 9.69668 0.994201
O 6.15625 10.3483 -7.55475
O 10.2153 -0.484833 -3.15884
O -3.99625 10.2428 1.67458
O -8.56695 7.96472 3.65205
O 2.96745 7.83091 -3.73259
O -0.45329 8.6807 3.40511
O -1.78054 -9.31187 1.67578
O 6.96204 -10.1411 1.10635
O -1.90726 4.06388 6.22361
O 3.98459 3.90329 -5.2826
O 1.25557 0.914535 6.71211
O 7.41983 2.59642 -2.11238
O -8.97573 10.1632 -0.890334
O 0.0439801 -9.62481 -2.5525
O -2.35074 9.69932 5.76508
O 0.896116 -6.33227 -8.61462
O 2.01572 3.50758 3.55852
O -10.2655 2.87832 -2.34724
O -9.73881 0.292326 -5.35642
O -9.5407 8.83373 1.4715
O 8.71022 0.364562 -1.24985
O 0.0663312 -2.38672 -0.108414
O 9.27373 8.1262 -7.19006
O 5.11948 -4.91853 5.21714
O 1.6431 -1.66437 7.67568
O 8.87924 0.147232 8.40689
O 7.11329 -9.65435 -5.5485
O -6.8511 6.49349 -0.00813803
O 4.92133 -3.83712 -6.46889
O 3.03431 4.36675 1.36711
O -2.95138 -2.10919 6.97093
O 5.84665 -1.82668 4.92806
O -5.39383 -9.65054 -1.54739
O 3.55574 5.25962 4.10032
O 10.1278 -7.18899 -3.49714
O -9.99149 8.87452 -8.72869
O -6.4236 -9.66821 -7.87333
O -9.61675 -3.14553 -8.68188
O 5.04833 -0.810088 0.213932
O -10.2572 -2.56105 5.95575
O 6.69611 8.84563 7.35146
O 2.26118 10.0484 -3.05029
O -4.26823 7.41549 6.0772
O 2.93916 -6.72887 -6.94242
O 4.91318 6.96454 7.37435
O 1.36365 -2.25112 3.05628
O -4.695 7.79292 -5.12689
O 2.28598 -9.10025 2.31522
O -5.51061 -0.0805596 5.63604
O 10.4679 6.67063 2.90039
O -3.0486 -2.22715 -7.72903
O -3.03406 -1.98461 3.50813
O 6.4151 7.52131 2.48182
O -5.85408 -8.7772 6.38316
O -10.3473 -9.70025 0.948746
O -10.1146 -9.5717 -2.76799
O -2.83382 -6.94144 -7.25388
O 0.490856 -8.35919 8.86006
O 6.87218 -8.00935 -7.63031
O 1.11434 -9.28883 -0.155493
O 0.657166 4.43163 6.59298
O 1.08547 -3.9033 -5.73578
O -8.9113 4.71273 7.80342
O 5.1528 5.93758 0.747779
O -4.63029 -8.44845 -4.99332
O -3.32107 -3.62515 -2.62245
O -0.739622 -1.47487 8.18191
O -4.60941 -9.46405 8.39358
O -6.14038 10.0537 3.1198
O 6.94934 -6.05964 7.21568
O 2.94775 6.84355 5.82418
O -5.10595 3.57702 -3.10704
O -3.98831 1.11143 -5.2982
O 8.09348 -1.12091 4.04183
O -7.23281 7.86075 -4.57485
O 10.0888 -10.0163 5.48264
O 6.73258 7.55641 -1.96
O -8.85906 -9.15485 -7.33517
O 2.88242 -10.4199 -9.17723
O 5.32767 10.4889 6.11536
O -2.88011 -8.85842 6.56367
O -6.73729 9.91746 -5.88031
O 9.24867 -7.61432 6.54242
O -5.15429 -6.9425 4.285
O -3.47451 4.62208 -4.78982
O -2.83891 -4.80427 -8.63605
O -1.43101 -4.99637 -1.79276
O -7.33031 8.5983 5.82346
O 2.7873 10.4838 6.98095
O 1.40499 2.44506 1.22222
O 7.69442 -1.34515 6.76336
O -5.96471 -1.76291 1.56434
O -7.97876 -9.07786 3.96953
O -0.571207 -9.58081 6.70888
O -5.3 -2.35929 -1.30137
O -2.13978 -4.54142 3.05105
O 2.50943 6.02211 -5.56869
O -2.97304 3.14346 4.00895
O 7.55614 -9.54562 7.31738
O 9.27342 -7.48881 1.56854
O 0.58364 4.89363 1.86091
O 4.10915 -7.41384 -1.99794
O 6.13778 -8.71714 -0.834813
O 7.94396 9.89097 5.41624
O 1.68272 7.58424 3.86902
O 8.1971 2.83685 3.76953
O 2.54721 8.13871 7.92588
O -2.39443 7.89381 -6.23841
O -4.94755 -6.43003 1.54287
O -1.03637 6.80979 -4.16098
O 0.637683 10.0847 -5.01795
O 8.74969 -8.99233 -0.434229
O -3.32204 -7.88115 2.94033
O -7.32725 -0.970416 -5.48144
O -8.43416 9.91824 -3.74431
O 8.63888 -9.51917 -3.69472
O 3.01702 -7.85587 -4.54004
O -7.12227 -2.0574 -3.03516
O 4.7758 7.25802 -5.62385
O 2.2457 4.81539 -3.40583
O 5.86938 -8.55803 2.68002
O -3.82675 -0.41897 1.88141
O 3.13465 0.684472 0.118341
O -2.84755 0.121606 -3.09991
O 3.33556 -6.88335 -9.36334
O 0.219797 -5.62156 5.53128
O -2.89087 -6.41915 -0.146611
O 9.71467 -10.3167 -7.56281
O 0.0130052 -4.38697 7.78075
O -1.57364 -9.17904 4.28299
O 6.45753 3.59024 -4.36409
O -4.0677 8.95291 -2.14749
O -8.56113 4.43013 -0.836753
O 2.78706 -5.55143 -3.29386
O -7.42867 4.08318 -7.11562
O -0.231828 2.30278 5.28276
O 0.145181 7.78908 -6.21754
O -6.19869 0.635424 2.50276
O -7.27346 -3.81468 2.05612
O -7.62835 2.21789 4.2686
O -0.88343 -0.674099 -7.19614
O 3.01849 3.75039 6.10052
O -3.89287 6.1475 -2.67953
O -10.2323 -0.0520564 6.67965
O 0.834243 9.98281 -7.73726
O 5.7756 -6.50934 -9.40528
O -3.69305 -3.79303 5.25339
O -2.05677 -5.42993 6.67418
O -7.89761 -1.12606 5.98581
O 4.14018 -0.130927 4.11407
O -2.73537 -0.983765 -5.51258
O -0.890245 -0.400469 5.88026
O -1.64859 -0.323358 -0.804211
O -0.53568 -7.36408 -0.910348
O 1.19879 -0.159033 1.53319
O -7.92312 -10.1728 1.48861
O -0.772731 -6.03143 -5.6633
O 4.3198 -0.01776 -7.38336
O 7.03453 5.07546 -1.99959
O -4.46481 -4.54988 -0.278437
O -9.55833 3.16979 5.84223
O 9.57864 4.65529 6.78501
O 3.67708 -9.24822 -0.137022
O 6.85729 -0.356763 -6.91673
O -7.29736 -7.04375 5.48463
O -5.9802 1.34725 -2.46312
O -6.40047 6.43681 -6.54652
O -10.2652 4.02429 -4.78222
O 5.84172 -2.05042 -3.44538
O 0.967923 0.175114 9.18195
O -3.44907 -9.71911 -3.08794
O 5.7422 2.1427 -6.3899
O -8.70897 1.68447 -0.645042
O -7.24976 -7.15856 -8.32952
O 0.68567 -8.7711 -9.15781
O -8.67001 5.73834 -5.68587
O 9.13081 -2.25811 -1.57091
O -7.37821 8.96979 -8.11346
O 4.52179 -5.87057 7.54603
O -6.45445 -2.13632 4.11189
O 8.42005 5.18522 4.53123
O -7.58222 -0.754738 -0.810915
O 8.64994 1.37944 6.14125
O -1.90625 7.50291 -1.86022
O -5.16113 1.97363 4.26381
O 2.88098 5.4346 -0.847018
O 2.07493 -3.59535 0.95541
O -0.0497986 8.8088 -2.96259
O 7.04697 4.90173 2.36241
O -8.71686 -4.89509 -7.03679
O -2.1036 -8.35484 -5.08451
O -7.81724 2.97866 -2.77927
O 4.5573 -3.9603 -2.60396
O -4.29048 7.17976 -0.277334
O 0.889302 -2.80416 9.69067
O -2.85772 2.99592 -6.66642
O -7.59212 -8.04035 -1.0051
O 1.27039 -7.96949 4.58124
O 2.59247 -1.61947 -0.62816
O -7.64291 -3.30006 -0.567787
O 0.528554 -4.58838 2.73152
O 4.26214 2.59914 4.12883
O 2.52918 8.62733 -6.12057
O -1.08191 -2.41676 -2.17699
O -8.9582 8.79866 -6.26568
O 2.68029 5.4272 8.00095
O 5.20622 0.01357 -4.93311
O 7.23852 -3.92837 -2.04307
O -3.7443 2.18426 6.21485
O 9.17065 6.64223 -1.79956
O 1.25797 -5.79745 9.41145
O -6.60796 2.67546 -4.98533
O 6.09996 7.69867 -7.78748
O -10.1724 -2.97243 -6.20953
O -7.02607 -7.95647 -5.92241
O -5.87027 -5.06804 -7.32176
O 9.92137 6.68356 -5.18502
O -3.70969 -4.38325 -6.29592
O 6.1218 7.72192 5.16996
O -8.10906 -5.74301 0.312149
O 5.49485 0.987223 2.32641
O 6.74721 -5.37345 -7.15227
O 8.75972 4.145 -3.51239
O -9.74716 6.09417 -3.2072
O -3.33965 10.2168 -5.41063
O -3.31868 0.487603 -7.59419
O 9.30492 -1.62593 -7.6819
O 8.66143 9.17593 -4.90818
O 7.35806 3.47756 6.01209
