582
Atoms. Timestep: 1790001
Si -7.39337 6.16092 8.81269
O -7.76884 6.58536 10.4102
H -7.67325 5.92866 11.09
Si 1.80816 -1.8664 -9.3464
O 1.30968 -1.42865 -10.9082
H 1.85283 -1.73424 -11.6252
Si -5.34249 3.73842 9.43665
O -4.96597 3.84525 11.0848
H -4.039 3.89043 11.2878
Si 1.68659 0.923594 -7.70945
O 1.20548 2.06915 -8.84519
H 1.49251 1.9103 -9.73675
Si 9.63711 -8.39104 -10.1216
Si 4.24794 -8.663 9.01101
Si 6.70285 -8.69855 9.24426
Si 9.84762 -5.9877 -9.66401
Si 8.0713 -6.27082 7.78185
Si -6.32882 -1.81182 8.05093
Si -2.12357 -1.34716 -5.92266
Si -7.28858 -9.75138 -3.20058
Si -7.9155 -4.38907 7.84266
Si -5.01385 0.402073 -1.93859
Si -6.88209 -2.70505 -5.45903
Si -9.06912 -9.98834 7.65227
Si -6.86603 -3.0226 5.33991
Si 1.7013 9.00387 2.22336
Si 5.63294 3.10616 -0.979771
Si -7.16874 1.09109 5.41983
Si 4.42676 1.90342 -6.3905
Si 1.75842 -8.88022 2.52815
Si 7.14873 -4.51634 -5.57081
Si -8.07532 -7.12119 6.91009
Si -7.75555 1.7121 -3.09138
Si -0.777358 -7.45196 -7.33758
Si -9.55293 -10.0735 4.55571
Si 7.96267 7.67673 -7.27867
Si -7.09981 9.1118 4.31923
Si -4.90299 9.35391 -6.74927
Si -3.65438 9.28246 7.31374
Si 0.371277 -10.3713 -7.74619
Si -0.271244 3.19466 4.26982
Si 6.63786 10.4152 5.87566
Si -3.81943 4.51948 -0.301021
Si 2.23631 -4.73783 3.71729
Si -9.87211 5.73864 7.12496
Si -3.95452 -6.25745 -4.792
Si 0.286727 3.63492 7.37771
Si 9.13954 -1.08412 7.46289
Si -8.33768 -2.87716 0.180031
Si -1.2845 -1.6846 2.31732
Si 8.40067 -0.614619 -2.64861
Si 3.67668 -5.87766 -7.87731
Si -1.51278 -5.89455 0.535136
Si 6.19993 -0.372004 7.29337
Si 6.10488 9.45339 -0.625079
Si -9.21405 -3.26884 3.16767
Si -4.11004 -2.49619 -1.59323
Si -2.34371 5.95544 -6.39179
Si -2.11707 9.88273 1.32244
Si 7.25369 -9.1412 0.767133
Si 1.79236 -1.81628 2.51134
Si -7.76694 2.19359 0.846902
Si -9.56081 -8.50281 2.06315
Si -5.14484 4.57899 -6.54885
Si -6.09068 -4.47675 -3.06105
Si -4.04791 2.76423 2.15993
Si 10.1583 -5.81927 2.61124
Si -5.57291 -8.7606 -5.54219
Si 5.65909 -4.95699 6.08313
Si -1.5037 -2.96756 -3.23942
Si -1.79331 -7.97844 -3.31616
Si 6.99219 5.04684 -2.95549
Si -6.47805 3.9165 -1.48527
Si 4.87125 8.7971 2.28812
Si -0.245097 -6.68361 3.02679
Si -1.08712 1.43076 1.89246
Si -1.59569 -4.40534 6.39808
Si -4.0813 -4.45224 4.36598
Si -6.01247 9.39185 -0.941334
Si 10.1016 -6.10337 5.70866
Si -7.72556 5.99583 -7.53309
Si 5.69853 4.55261 -5.8036
Si 9.41436 3.27825 6.03583
Si 6.2072 5.86116 6.48143
Si -3.59139 8.50569 -2.59484
Si 7.94923 -9.07207 -5.69066
Si 8.3582 0.470894 2.69835
Si -5.7006 -7.2437 4.59004
Si 2.4066 10.2872 7.77664
Si 8.92303 8.97641 4.56268
Si -6.9779 1.2867 8.35847
Si 8.82057 10.4596 -8.37969
Si 10.0855 -3.10771 -1.59942
Si 5.01546 -6.3161 3.36223
Si -1.07099 -8.83802 -0.670426
Si -1.11433 3.83481 -4.43146
Si 8.12913 -4.09257 0.665057
Si -3.41981 -3.67785 1.14856
Si 1.02424 -5.39896 -6.0137
Si -0.206309 0.881465 -5.24252
Si -8.86277 1.75366 -6.08734
Si 0.0809344 1.69789 -1.04231
Si 5.86981 -2.13185 1.73157
Si -9.7855 -2.73575 -6.44937
Si -0.651981 9.36306 7.27238
Si -5.27721 10.325 1.94727
Si -3.01495 -5.31071 -7.46528
Si 9.03253 -0.960909 -7.94352
Si 2.24905 7.4692 4.57742
Si 3.26982 -1.36022 7.34327
Si -6.53215 -7.78192 1.66141
Si -7.68154 6.76225 -1.58317
Si -8.62451 -4.99438 -8.39952
Si -1.06962 -7.39301 6.02763
Si -2.70603 6.98425 5.30932
Si 9.15742 -1.98415 4.40878
Si -7.94579 3.50677 3.60583
Si -7.50666 -5.88619 -0.628373
Si 6.51891 6.17243 3.25474
Si 5.0494 7.59333 -6.0425
Si -5.04662 -1.09157 -7.23782
Si 0.781367 6.5717 0.579512
Si 8.96541 9.34428 -4.79661
Si 8.7494 7.46264 7.35926
Si 2.61231 9.45766 -5.844
Si 2.43673 6.59252 -1.86262
Si -8.70178 6.49257 -4.47767
Si 8.95218 8.53051 -1.70849
Si -1.92557 8.78496 -7.31758
Si -5.81935 -3.96011 -7.9955
Si 10.1232 -10.0895 -0.108183
Si -2.77256 3.14053 7.79056
Si 1.8076 -7.90937 -8.20564
Si 7.74154 -3.83133 -8.71071
Si 0.0326645 6.48209 6.72662
Si 8.74666 10.4404 8.18574
Si 10.4534 6.43869 -0.453749
Si 2.92769 0.0202506 4.71404
Si 1.90648 -8.53402 5.66375
Si -3.26964 -2.28983 7.61768
Si 10.2439 3.32542 0.151786
Si -9.62151 0.99459 7.05954
Si -9.04746 9.50415 -5.27257
Si -2.67087 2.52535 -2.23824
Si -2.07289 7.0961 -0.410204
Si -6.71924 8.98682 7.55225
Si 1.48684 -3.91656 6.75175
Si -4.71933 6.89064 -4.76705
Si -2.80337 -0.904601 4.83034
Si 6.07348 -6.30771 0.591786
Si -8.43661 3.32679 -8.44292
Si -1.53825 9.62544 4.22808
Si 9.54309 6.77839 2.56902
Si 0.687384 -0.765032 -2.64365
Si -1.70036 0.278567 7.35293
Si 3.30597 -2.50942 0.218569
Si 1.48996 3.7511 -2.81694
Si -8.74629 6.3933 4.21984
Si 3.64876 -1.22619 -2.58125
Si 3.11855 -6.22606 7.39915
Si 9.98035 1.88778 -8.0715
Si -6.28028 1.69473 -7.56632
Si 4.78636 -3.02345 -8.87385
Si 10.3035 1.86483 -2.48391
Si -3.13551 4.16115 4.77354
Si 1.99354 4.97108 2.94146
Si 1.81895 -9.14294 -2.19357
Si -7.60737 8.99721 -8.10213
Si 0.2893 -5.58004 -3.22911
Si -9.46281 -7.85692 -1.86807
Si 6.0983 -1.78027 -4.45355
Si 1.44231 0.972877 7.25018
Si 5.49986 1.66827 3.63278
Si -0.548742 -3.33872 -7.78028
Si 6.30726 -2.17466 4.74689
Si -5.30437 0.150033 3.13098
Si 5.47658 -7.12659 -5.77044
Si 9.94665 3.06425 3.18005
Si -3.43253 -9.2348 5.39153
Si 5.17948 7.74133 -2.8907
Si -10.4322 -7.34342 -4.74949
Si 4.39892 8.33634 6.57592
Si 6.93862 0.307086 0.0171499
Si 8.57969 4.55769 -7.0166
Si -6.54528 -0.495327 0.586015
Si 1.14864 9.08745 -3.1311
Si -8.28219 -7.75047 -6.96949
Si 4.6492 3.99857 1.71832
Si 3.10212 -7.49509 0.0763504
Si 10.02 -4.06124 7.77508
Si 2.90532 -8.59445 -5.12314
Si 9.88773 4.55633 -4.11783
Si 3.86324 1.83101 -3.32376
Si -1.60521 10.1413 -4.31935
Si 5.65092 -9.39155 3.455
Si 10.0224 -4.50047 -4.30588
Si 5.97463 -0.532786 -7.24016
Si -9.29091 -9.89392 -8.98816
Si 1.34236 -4.98132 -0.387287
Si 6.33432 2.69463 6.49477
O 9.52402 -6.99798 -10.9063
O 5.41258 -8.55666 10.1955
O 5.31755 8.98974 -1.96628
O 1.9701 0.921919 5.66862
O -5.05832 -5.4005 -3.95729
O -0.640666 6.45473 -0.173582
O -0.451135 -6.95888 -2.99548
O 1.92026 10.3051 -2.37841
O 8.79806 -0.933754 3.33198
O -7.78538 7.44589 -8.21108
O -7.28885 5.27329 -1.15456
O 8.54476 8.86143 8.1785
O -9.68212 -8.75884 3.67326
O 8.67612 -9.718 0.457603
O 3.28853 -10.1368 -5.46668
O 2.97901 -7.04391 -8.7674
O 6.19745 4.62489 -4.30517
O 3.13059 4.30378 2.07096
O -0.577166 -9.06482 -7.22603
O -5.3178 -2.4106 -8.10186
O -8.4023 1.56462 -4.63217
O -3.89636 1.5423 -2.17126
O -5.60335 -9.11418 1.76431
O 4.76194 2.62543 -2.30509
O -2.24902 -6.7625 -7.59394
O -6.2792 -7.1182 3.08765
O -1.08541 -2.00395 -7.01617
O -7.49584 2.55483 4.83237
O -7.14642 -1.79578 -0.0839382
O -0.0924039 -6.55713 -6.20432
O 2.54535 6.07078 3.89772
O -6.4258 1.32389 6.846
O 8.47779 -4.71549 -4.68644
O 9.45165 7.07335 -1.47133
O 9.95568 9.53001 -0.935024
O -10.2981 -5.76758 -4.99128
O 10.3892 -10.4441 -8.26799
O -6.47671 0.726318 -2.67178
O 8.65612 -9.58637 -9.65418
O -5.32125 -3.46411 4.87597
O -6.24861 5.02924 9.01242
O 10.213 -1.62286 -7.12673
O -0.7739 9.61806 5.72795
O -6.35604 0.368163 4.32655
O -0.116931 0.408487 7.491
O 6.97651 -7.62983 0.418992
O 6.86266 -9.27628 2.37352
O -8.27384 10.162 3.87898
O 4.652 -3.02402 1.04871
O -2.48349 -8.18219 6.12961
O 0.905059 5.62346 1.90219
O -10.1148 6.28055 3.33416
O -7.01193 2.6075 -8.76146
O 2.13129 -4.31831 5.36388
O 7.51795 -0.346662 -1.32865
O -3.30657 7.96832 6.4877
O -2.41761 3.3587 -3.61488
O 10.4748 -3.23342 -5.1609
O -1.20031 9.79745 2.65503
O 9.12767 -3.60365 -0.427086
O -2.40464 -3.63756 7.52741
O 8.77857 -4.8816 -9.35208
O -0.888447 -7.1415 4.41365
O -0.381474 -1.90501 -2.64397
O -7.6887 0.612001 0.897651
O -1.55028 9.54362 -5.83458
O -3.58825 5.73227 4.8542
O 10.0311 -4.56373 6.23216
O -8.19286 -8.60337 -2.58821
O 8.68154 8.20724 -5.87167
O 0.941291 8.12283 1.1476
O 0.244143 -2.04605 2.2185
O 2.24639 -2.60874 7.38126
O -7.6552 -5.92898 7.91732
O -5.225 8.10048 -5.62431
O 5.54613 -8.98738 8.06122
O -6.81882 -3.53055 -4.11812
O -9.10772 6.98419 -0.904886
O 4.13951 0.814953 4.06307
O -3.87877 3.75443 8.73768
O -1.32408 1.65306 -1.92622
O -3.22638 -5.23539 -5.86556
O -9.49471 -2.82548 -0.951397
O -5.89785 -1.46373 -5.85248
O 9.60281 3.43666 1.65276
O 3.90123 6.95691 -2.3881
O 7.88728 -10.2019 6.84744
O -4.007 3.31631 3.69389
O -1.95965 -8.78053 -2.01631
O -9.63117 -4.82036 2.87303
O -1.67286 -1.62176 3.9417
O -2.52176 1.53657 7.92261
O 2.23005 -3.26981 3.0824
O -6.75052 -0.331614 8.72008
O -6.92502 -7.37252 5.73501
O 2.87839 -8.4068 1.38823
O -1.36183 -6.04417 2.12516
O 1.94419 -5.12458 7.6736
O -7.88284 -2.99357 4.0828
O -0.600835 2.42513 -5.06022
O -9.30205 -3.8141 -7.48829
O 5.67734 -1.99342 3.2762
O -10.0067 -9.81629 1.23567
O -6.76453 10.4406 -1.91152
O 5.35045 -1.6855 -8.18264
O 8.05929 6.03851 2.83771
O -10.4122 -7.17546 1.87196
O 6.68268 4.08144 -1.71666
O -6.83927 -8.23161 -6.34259
O -3.24096 3.52398 6.24742
O -4.32648 3.89601 1.05575
O 7.41719 -1.18872 -3.79672
O 7.95337 -10.4132 -4.85277
O 4.86592 3.8837 0.16555
O 4.80351 -1.76228 -3.53436
O 6.32685 -10.0433 -0.231852
O 9.07244 3.21806 -7.97164
O 3.81162 0.330473 -2.6104
O -1.21828 3.55876 8.006
O -7.16176 -4.40439 -8.75241
O -7.61822 1.04487 -6.8751
O 0.153697 4.20725 -3.54756
O 8.48155 -2.36896 -8.73873
O -4.9703 4.34362 -1.43872
O 7.89771 -9.73197 9.27984
O -0.43608 7.76757 7.53072
O -2.44847 7.65464 -1.81549
O 10.1952 3.05516 -3.58011
O -1.41829 4.96466 -5.55809
O -8.35093 9.42587 -6.70096
O -9.29942 2.74801 0.490375
O 3.83603 -1.84566 -1.12864
O 5.69185 -5.82722 4.74165
O -1.25332 -5.92684 6.71059
O 7.31261 -2.90038 1.3784
O 6.95271 -5.3233 7.04957
O -2.03903 -2.40634 -4.66452
O 2.1038 -1.45326 -2.90802
O -8.74018 -6.74193 -1.00159
O -2.88725 -6.95975 -3.77099
O 7.57599 6.41669 7.21422
O 0.931916 2.98118 -1.45824
O -7.09195 -3.18633 8.56235
O 1.41794 -9.40767 -8.63501
O 3.59367 -5.55461 3.41943
O 5.64791 -3.37126 5.61356
O -3.95146 -0.351791 3.84492
O -5.19631 5.38868 -5.09601
O -10.3692 -7.37823 -3.15148
O -1.34547 6.20519 5.89992
O 2.06957 -6.2291 0.192452
O 6.30316 1.7611 -0.297316
O 6.44254 -3.1732 -5.10689
O -8.25205 6.08729 -5.97852
O 0.350272 -8.23806 6.17061
O 8.9955 -6.86352 6.62756
O -2.06492 0.178759 5.82974
O 5.92242 -0.729713 0.846093
O 0.701968 -2.90663 -8.772
O 5.81771 2.41388 5.00344
O -6.71195 7.93237 -1.19398
O 4.95016 -7.90676 3.34559
O 0.791173 10.0155 7.8572
O 5.68665 7.59789 3.0043
O 0.942206 -5.55658 3.30443
O 2.67719 -7.2307 6.2069
O 5.91177 4.24232 6.80299
O 4.45935 1.58775 -4.74749
O -9.72022 2.42397 -8.88059
O 8.16588 -9.79639 -7.17408
O 5.66332 5.14427 2.36436
O 1.90992 -0.474521 -8.53308
O 6.48948 7.81611 -6.85035
O 9.41496 1.54311 3.21045
O 3.38714 9.00789 7.67765
O -6.56271 -6.77246 0.388333
O -9.68621 -5.45605 -9.46736
O 3.39554 -1.08433 5.72448
O 5.42819 8.86533 0.768457
O 9.51778 4.43484 -5.73313
O -3.52215 -1.12196 -6.66467
O -1.50484 -9.99818 0.335898
O 4.61434 -6.78009 0.0991843
O 2.48368 -9.83003 6.45081
O -0.271113 -4.97175 0.153632
O 7.76755 -2.813 4.5433
O -10.4844 2.1802 6.31105
O -8.61575 -8.79598 -8.06709
O -2.11598 9.65335 7.88093
O 6.29145 -3.55734 -9.39153
O -3.37613 -1.7905 6.04069
O -5.82355 9.58943 3.32531
O 9.48889 -1.79512 -2.26158
O -1.6829 3.96208 4.14551
O 9.69999 -7.38033 -8.78294
O -4.77505 -8.53885 4.88497
O 1.37931 9.84652 -6.81616
O 2.15449 5.16503 -2.53167
O -4.32089 -1.02916 -2.14606
O -4.95776 -10.1759 -6.08344
O 7.4984 8.80168 -1.00615
O 9.7422 2.37972 -1.04254
O -1.55975 0.052372 -5.45105
O -7.39255 2.88622 2.2502
O 6.8661 0.885659 3.21875
O -9.90248 5.51462 -3.98146
O -1.73323 7.16479 -7.26168
O -5.40526 0.372232 -7.76885
O 8.54304 4.96479 -3.343
O 5.99306 -9.47592 5.02032
O 1.98516 8.84402 -4.51321
O 10.337 -10.2415 8.10762
O -9.46972 -4.23755 8.15596
O -3.95246 -4.0698 2.70105
O 5.18665 8.02463 -4.49223
O 7.97184 2.8128 6.55598
O 9.40627 0.481763 -8.56551
O -9.2678 6.23898 5.72877
O -6.08436 -9.07713 -4.03208
O 4.88475 -6.61425 -7.17839
O 9.254 -8.14624 -5.24463
O 1.33716 8.44003 3.66575
O 7.40309 -7.3055 8.7918
O 3.67625 8.4284 -6.49874
O 2.36354 -5.60502 -6.85624
O -4.74408 -2.14729 8.07155
O -7.49946 -4.09552 6.2797
O -3.86025 -10.4667 6.40129
O 7.65533 -0.689746 7.84424
O -6.89408 -5.42745 -2.09195
O 2.88555 -8.34013 -1.26249
O 9.26901 3.7094 4.4906
O -4.53717 -7.57231 -5.52778
O -7.78276 -4.41589 0.0866039
O 9.38341 0.637705 -2.99795
O -8.1076 10.3048 -4.27371
O -9.09137 1.5892 -2.3192
O -0.248383 1.68128 0.550893
O -2.69057 -2.94294 -2.1452
O -2.86887 9.46529 -3.66644
O 5.84609 -6.00497 2.06724
O 9.03246 -4.95015 1.78679
O -9.09527 -9.99602 6.03677
O -4.50622 -4.86163 -8.15453
O -0.745639 9.59056 -8.18482
O -3.26395 6.0357 -0.110183
O 7.0672 4.43158 -6.57669
O 3.27617 8.51236 2.18887
O -9.45537 -6.60415 6.15592
O -5.8644 -0.828362 2.01268
O 1.33921 7.7715 -2.31099
O -7.88271 5.02456 3.89248
O -2.66151 -4.36174 5.15542
O -4.96677 1.45707 2.34847
O -7.8582 7.6677 3.99873
O -7.02611 7.47596 7.97005
O 1.25322 -5.41684 -4.45371
O 0.233456 -4.15184 -6.59733
O 1.35731 2.52649 7.82446
O 10.0891 4.5464 6.78481
O 0.459022 -9.02098 -1.32615
O -10.2968 -8.94857 -1.06693
O 3.08302 -9.73349 8.87972
O 1.29761 7.05898 5.83761
O 3.0129 1.47936 -7.02283
O -7.65802 6.57634 -3.20733
O 5.06237 6.88977 6.94901
O -10.3257 1.40795 -6.68761
O -6.85465 2.86512 -0.325421
O 1.24371 -5.3617 -1.91885
O -0.310904 9.58453 -3.54909
O 4.93783 2.64946 2.48703
O -7.99806 9.89729 8.0049
O 3.51177 8.16961 5.23956
O -8.3804 -2.23378 -5.85137
O 8.53373 6.15931 -7.51184
O 9.25069 -1.22594 5.8807
O -9.52949 3.23824 3.41363
O 2.05627 -8.14775 -6.57482
O 0.353046 -7.17215 -8.49626
O 2.14856 -3.63437 -0.058453
O -3.19716 6.87488 -5.3477
O -10.4959 -2.72762 3.94145
O -2.13186 8.07034 4.27683
O -8.05353 -8.21795 1.64616
O 4.87809 -1.16364 7.75679
O 2.06829 -0.72244 3.60047
O 4.30419 -4.4191 -8.14939
O -8.63416 3.13577 -6.79874
O -5.53511 0.278629 -0.405746
O 3.31223 -2.55898 -9.50934
O 2.00136 -8.69799 4.08786
O -9.99159 -9.18382 -10.272
O -6.09452 9.2483 -7.76689
O 6.96673 -5.04608 0.0303204
O 7.59683 -0.633313 -7.28006
O -6.24695 5.48563 -7.35568
O 10.1786 6.82911 7.8351
O -0.821614 -4.40829 -3.3348
O 9.73626 -6.19248 4.15427
O -9.11064 8.01034 -4.67124
O -8.40959 4.92502 -8.54903
O -1.82267 -4.27639 -8.08146
O -6.34251 -3.87998 -6.5137
O 2.10542 -8.67234 -3.70157
O 7.54562 -4.31835 -7.12525
O 6.14767 -5.77658 -5.28471
O 4.21751 -7.71861 -5.05037
O -8.30062 9.93415 -9.16314
O -8.92074 -2.6576 1.68318
O 10.3282 0.0321255 7.70924
O -6.7178 -1.85151 6.4701
O -2.28267 -1.11455 8.08622
O -8.62669 5.49352 8.07801
O -0.0680037 3.04154 5.8516
O -2.51878 2.1311 1.83041
O 0.634028 5.16917 7.35013
O -3.59777 5.03427 -6.95255
O -2.48865 -10.1343 4.40364
O -2.70075 3.53189 -0.975167
O 8.37394 8.87518 -8.31884
O -4.72976 -5.9073 4.70837
O 1.63273 -10.4293 2.14905
O 7.52383 9.66014 4.73411
O -8.47655 -8.49281 7.71574
O 2.47622 2.66995 -3.46633
O 4.80639 3.39246 -6.30636
O 9.01254 8.01283 5.82988
O 6.68747 -8.17792 -5.71313
O 0.729844 0.323605 -1.44994
O 2.61367 -1.44368 1.19628
O -1.5658 -9.24693 -4.33267
O -1.35751 -7.39199 -0.00776758
O 2.44673 -0.065197 7.97107
O 10.4142 9.90344 -5.19906
O 5.53131 1.03415 -7.31353
O 9.95101 6.88138 1.01965
O -6.1404 2.38308 9.17097
O 10.1008 10.1165 4.6391
O -2.14865 -2.70132 1.5015
O 10.4466 4.83628 -0.386232
O 4.90913 5.97142 -6.1236
O 6.36015 5.92681 4.89232
O 3.65185 -7.26186 8.48872
O -8.31368 -6.26621 -7.5487
O -7.07271 3.13601 -2.84973
O -0.525492 1.90549 3.36119
O -4.48774 7.42317 -3.29012
O -4.50946 9.2604 -1.56212
O 6.41552 6.58155 -2.70119
O -5.17825 9.20517 7.96528
O 0.392993 0.214542 -3.86386
O 6.2662 -0.852734 5.68271
O 2.10258 6.35126 -0.362561
O 4.31551 -5.36136 6.92974
O 5.56575 9.36091 6.36763
O 4.94571 10.1876 3.04357
O 8.16111 0.481758 1.10722
O 5.95799 1.26683 7.2405
O -2.10536 8.46692 0.58908
O -2.87723 -5.05229 0.405146
O 9.4873 -2.58053 8.04074
O 8.92516 8.78052 -3.27923
O -9.28028 -7.88806 -5.74767
O 9.24319 8.23197 3.22771
O 10.1379 -4.24415 -2.72252
O 5.57892 -0.964872 -5.77158
O 0.499029 -7.97419 2.29981
O -5.55917 2.98648 -6.77758
O -1.43812 -0.113398 1.99125
O -4.12311 -2.83871 -0.0242944
O 1.04372 3.93687 3.7769
O -0.0961527 -3.68899 6.34293
O -8.61028 0.499461 5.94479
O 0.7011 0.680272 -6.51031
O 9.08977 -5.15728 8.49152
O -3.70917 10.1146 1.7436
O -6.71591 9.13991 5.90903
O -3.48468 9.12613 -7.40536
O -5.23521 -3.42422 -2.22942
O -6.00487 9.77486 0.57909
O -8.5852 1.58107 8.1907
