11

F      -1.066893000000000      0.797655000000000     -0.849069000000000
F      -0.395992000000000     -1.568531000000000     -0.134002000000000
F       3.738568000000000     -1.216582000000000     -0.648382000000000
F       3.864287000000000      1.313574000000000     -0.430262000000000
Si     -0.016379000000000     -0.023393000000000      0.020439000000000
Si      2.978564000000000      0.046345000000000     -0.034955000000000
O       1.479695000000000      0.188382000000000     -0.613558000000000
O      -0.089553000000000      0.477647000000000      1.561417000000000
O       2.825660000000000     -0.098005000000000      1.592856000000000
H       0.700767000000000      0.333622000000000      2.088748000000000
H       3.594825000000000     -0.253995000000000      2.139139000000000
