17

F      -1.066652000000000      0.797536000000000     -0.849010000000000
F      -0.395880000000000     -1.568397000000000     -0.134064000000000
F       3.738384000000000     -1.216459000000000     -0.648345000000000
F       3.864128000000000      1.313440000000000     -0.430291000000000
Si     -0.019117000000000     -0.030837000000000      0.017491000000000
Si      3.011395000000000      0.045102000000000      0.000080000000000
O       1.488385000000000      0.213919000000000     -0.530446000000000
O      -0.118101000000000      0.397558000000000      1.587245000000000
O       2.982926000000000     -0.103619000000000      1.624625000000000
Cr     -0.510460000000000      1.589317000000000      2.781860000000000
O      -1.273591000000000      2.762954000000000      2.154017000000000
O      -1.376686000000000      0.969699000000000      3.886499000000000
Cl      1.279668000000000      2.342812000000000      3.650211000000000
Cr      3.377498000000000     -1.049027000000000      3.023457000000000
O       4.184731000000000     -0.208109000000000      4.021490000000000
O       4.202713000000000     -2.282805000000000      2.636834000000000
Cl      1.585462000000000     -1.706042000000000      3.962450000000000
