17

F      -1.066798000000000      0.797638000000000     -0.849025000000000
F      -0.395994000000000     -1.568577000000000     -0.134051000000000
F       3.738436000000000     -1.216526000000000     -0.648325000000000
F       3.864335000000000      1.313585000000000     -0.430309000000000
Si      0.050796000000000     -0.035358000000000     -0.072731000000000
Si      2.956682000000000      0.051539000000000     -0.089185000000000
O       1.487126000000000      0.180759000000000     -0.794336000000000
O       0.111843000000000      0.428686000000000      1.520286000000000
O       2.694847000000000     -0.072305000000000      1.504074000000000
Cr     -1.554142000000000      1.324748000000000      2.261069000000000
O      -1.316993000000000      2.612948000000000      1.467715000000000
O      -2.532422000000000      0.421240000000000      1.504518000000000
Cl     -2.861116000000000      2.092238000000000      3.838131000000000
Cr      1.555677000000000     -0.206922000000000      2.850456000000000
O       2.423972000000000      0.349730000000000      3.992163000000000
O       1.361980000000000     -1.702507000000000      3.098421000000000
Cl     -0.301608000000000      0.559020000000000      4.126733000000000
