23

F      -1.066808000000000      0.797655000000000     -0.849035000000000
F      -0.395950000000000     -1.568550000000000     -0.134042000000000
F       3.738465000000000     -1.216559000000000     -0.648337000000000
F       3.864273000000000      1.313574000000000     -0.430297000000000
Si      0.019632000000000     -0.020816000000000     -0.004694000000000
Si      2.971822000000000      0.036297000000000     -0.016270000000000
O       1.491277000000000      0.179639000000000     -0.708493000000000
O       0.050850000000000      0.448719000000000      1.534420000000000
O       2.868961000000000     -0.067534000000000      1.583531000000000
Cr      1.503679000000000      0.527792000000000      2.684371000000000
C       1.715783000000000     -0.867120000000000      4.159326000000000
C       2.637912000000000      0.094620000000000      4.629136000000000
C       2.418421000000000      2.059713000000000      3.861878000000000
C       2.490970000000000      2.795175000000000      2.515279000000000
H       2.088736000000000     -1.738193000000000      3.633303000000000
H       0.777716000000000     -0.992904000000000      4.694288000000000
H       3.681681000000000     -0.032484000000000      4.370658000000000
H       2.458847000000000      0.570954000000000      5.583858000000000
H       3.337138000000000      2.236068000000000      4.408416000000000
H       1.581053000000000      2.418665000000000      4.469700000000000
H       2.443047000000000      3.869469000000000      2.709144000000000
H       1.642149000000000      2.609443000000000      1.835599000000000
H       3.404569000000000      2.566471000000000      1.972144000000000
