17

F      -1.066892000000000      0.797671000000000     -0.849076000000000
F      -0.396009000000000     -1.568528000000000     -0.133990000000000
F       3.738617000000000     -1.216596000000000     -0.648391000000000
F       3.864265000000000      1.313573000000000     -0.430254000000000
Si      0.006223000000000     -0.025428000000000      0.002328000000000
Si      2.984133000000000      0.037503000000000     -0.008760000000000
O       1.490449000000000      0.188967000000000     -0.664527000000000
O       0.004608000000000      0.389210000000000      1.569286000000000
O       2.877898000000000     -0.058188000000000      1.607293000000000
Cr      1.504048000000000      0.668174000000000      2.541019000000000
C       1.764081000000000      2.632706000000000      2.632146000000000
C       1.753840000000000      3.292044000000000      1.260330000000000
H       2.714125000000000      2.788842000000000      3.159596000000000
H       0.945185000000000      2.992155000000000      3.271109000000000
H       1.879035000000000      4.375225000000000      1.339259000000000
H       0.812378000000000      3.105904000000000      0.740295000000000
H       2.562213000000000      2.913733000000000      0.635709000000000
