36

Cr      0.917335780383380     -0.695585185549184      1.034228906858765
O       0.152773969490546      0.849905430251157      0.451730843516618
O      -0.540772593978712     -1.660812158995041      1.538864278535867
Si     -0.748206432430003      2.178285475939028      0.044463056601492
Si     -2.086691201005431     -1.181328046443948      1.377711459927397
O      -0.851655490202262      2.182619993594299     -1.556697046081484
O       0.055564708313995      3.423880646942383      0.656625706153125
O      -2.289256061993106      2.214770714638846      0.584561483055714
O      -2.450456472254567      0.149388508917939      2.239046917765927
O      -3.046738553105520     -2.381285158939355      1.933806424777098
O      -2.407184068885629     -0.788309317448332     -0.177606728584242
H      -0.530550879135769      1.848458246979763     -2.397427535508005
H       0.865003569522563      3.730127457057834      1.072103288291424
H      -2.765535096782474      1.853193944565379      1.335574479190499
H      -2.829207616829979      1.002402847109486      2.014293476585481
H      -4.000220863735540     -2.447868513504357      1.844150748936083
H      -3.021292717809056     -0.711894150728692     -0.911521771087563
C       1.934019897818333     -1.618054114758644     -0.447595806121372
C       3.385873143166280     -1.831666796536547     -0.014708088397381
C       3.585087564350569     -1.275575839621962      1.396665874105127
C       5.036940809698515     -1.489188521399865      1.829553591829118
C       5.236155230882805     -0.933097564485279      3.240927554331626
C       6.688008476230750     -1.146710246263182      3.673815272055617
H       1.910196608857519     -0.999673537114331     -1.344890580482271
H       1.472902479722723     -2.582728114157877     -0.659432539508019
H       4.051456289764867     -1.314423080039082     -0.705763811698920
H       3.614162160630071     -2.897477657082629     -0.020305770724668
H       2.920339895595894     -1.792646254311936      2.088654835821687
H       3.357634024730690     -0.209591677268390      1.403196794847435
H       5.702523956297104     -0.971944804902400      1.138497868527580
H       5.265229827162308     -2.554999381945947      1.823955909501831
H       4.571407562128130     -1.450167979175254      3.932916516048186
H       5.008701691262926      0.132886597868292      3.247458475073934
H       6.829932475636552     -0.750540871729262      4.679303912008384
H       7.353591622829339     -0.629466529765718      2.982759548754078
H       6.916297493694545     -2.212521106809265      3.668217589728330
