36

Cr      0.917335780383380     -0.695585185549184      1.034228906858765
O       0.152773969490546      0.849905430251157      0.451730843516618
O      -0.540772593978712     -1.660812158995041      1.538864278535867
Si     -0.748206432430003      2.178285475939028      0.044463056601492
Si     -2.086691201005431     -1.181328046443948      1.377711459927397
O      -0.851655490202262      2.182619993594299     -1.556697046081484
O       0.055564708313995      3.423880646942383      0.656625706153125
O      -2.289256061993106      2.214770714638846      0.584561483055714
O      -2.450456472254567      0.149388508917939      2.239046917765927
O      -3.046738553105520     -2.381285158939355      1.933806424777098
O      -2.407184068885629     -0.788309317448332     -0.177606728584242
H      -0.530550879135769      1.848458246979763     -2.397427535508005
H       0.865003569522563      3.730127457057834      1.072103288291424
H      -2.765535096782474      1.853193944565379      1.335574479190499
H      -2.829207616829979      1.002402847109486      2.014293476585481
H      -4.000220863735540     -2.447868513504357      1.844150748936083
H      -3.021292717809056     -0.711894150728692     -0.911521771087563
C       2.556395933289565      0.279157959901659      2.650817170935846
C       2.450959732791535     -0.814860746692617      3.417371981269932
C       1.934019897818333     -1.618054114758644     -0.447595806121372
C       3.385873143166280     -1.831666796536547     -0.014708088397381
C       4.155935865777902     -2.530368510244702     -1.137080271991247
C       5.607789111125849     -2.743981192022605     -0.704192554267255
H       1.890380853359901      1.126180550303570      2.815366995168874
H       3.308176280788522      0.322046108445838      1.862726493520613
H       1.699179385292577     -0.857748895236796      4.205462658685165
H       3.116974812721198     -1.661883337094528      3.252822157036904
H       1.910196608857519     -0.999673537114331     -1.344890580482271
H       1.472902479722723     -2.582728114157877     -0.659432539508019
H       3.410820772213145     -2.450509026043810      0.882237791120118
H       3.848114901347941     -0.867454449000263      0.196779750145867
H       4.132112576817089     -1.911987932600389     -2.034375046352145
H       3.694818447682292     -3.495042509643936     -1.348917005377893
H       6.156395887365502     -3.241749079566323     -1.503791038004062
H       5.632736740172715     -3.362823421529868      0.192753325250244
H       6.070030869307511     -1.779768844486321     -0.492704715724008
