36

Cr      0.678380759667818      0.952042791977117     -0.498295229691242
O      -0.508755757906119     -0.407601620669766     -0.731691801646656
O       0.184790805563139      2.103115968576432     -1.818825236665905
Si     -2.054674364932838      0.071882491881327     -0.892844620255126
Si     -0.716189596357410      3.431496014264303     -2.226093023581031
O      -3.014721717032927     -1.128074620614080     -0.336749655405425
O      -2.375167232813036      0.464901220876943     -2.448162808766765
O      -2.418439636181974      1.402599047243214     -0.031509162416595
O      -2.257239225920513      3.467981252964121     -1.685994597126809
O      -0.819638654129669      3.435830531919574     -3.827253126264007
O       0.087581544386587      4.677091185267658     -1.613930374029398
H      -3.968204027662947     -1.194657975179081     -0.426405331246439
H      -2.989275881736463      0.541316387596583     -3.182077851270086
H      -2.797190780757386      2.255613385434761     -0.256262603597042
H      -2.733518260709881      3.106404482890655     -0.934981600992024
H      -0.498534043063176      3.101668785305038     -4.667983615690528
H       0.897020405595156      4.983337995383110     -1.198452791891099
C       2.688357059658906      0.419439962349241     -0.446050618997742
C       2.785614947301606      0.927766918182203      0.789969044787941
C       0.798851232899724      1.749025295699661      1.419178565133454
C       0.909899418044002      2.329428461688043      2.830454748411139
C      -0.447131154739425      2.890377264188807      3.260227322575708
C      -0.336082969595147      3.470780430177191      4.671503505853394
H       3.219415369214499      0.923416361368233     -1.253568334644776
H       2.940672907974633     -0.640709373784824     -0.423244966557693
H       3.527261291754165      1.726517726213278      0.797574728837588
H       3.089967162619368      0.143463149169731      1.483032769811840
H       0.056574392980579      0.950852037760026      1.412504493686723
H       0.493868522115375      2.533906614803572      0.727046452712470
H       1.651545762496561      3.128179269719118      2.838060432460785
H       1.214251633361765      1.545124692675572      3.523518473435038
H      -1.189407994658570      2.092204006249172      3.253553251128975
H      -0.752113865523774      3.675258583292718      2.568095210154723
H      -1.302856384192491      3.870410622808452      4.977681352807236
H       0.405563374857410      4.269531238208264      4.679109189903039
H      -0.031730754277386      2.686476661164718      5.364567230877292
