36

Cr      0.917335780383380     -0.695585185549184      1.034228906858765
O       0.152773969490546      0.849905430251157      0.451730843516618
O      -0.540772593978712     -1.660812158995041      1.538864278535867
Si     -0.748206432430003      2.178285475939028      0.044463056601492
Si     -2.086691201005431     -1.181328046443948      1.377711459927397
O      -0.851655490202262      2.182619993594299     -1.556697046081484
O       0.055564708313995      3.423880646942383      0.656625706153125
O      -2.289256061993106      2.214770714638846      0.584561483055714
O      -2.450456472254567      0.149388508917939      2.239046917765927
O      -3.046738553105520     -2.381285158939355      1.933806424777098
O      -2.407184068885629     -0.788309317448332     -0.177606728584242
H      -0.530550879135769      1.848458246979763     -2.397427535508005
H       0.865003569522563      3.730127457057834      1.072103288291424
H      -2.765535096782474      1.853193944565379      1.335574479190499
H      -2.829207616829979      1.002402847109486      2.014293476585481
H      -4.000220863735540     -2.447868513504357      1.844150748936083
H      -3.021292717809056     -0.711894150728692     -0.911521771087563
C       1.934019897818333     -1.618054114758644     -0.447595806121372
C       3.385873143166280     -1.831666796536547     -0.014708088397381
C       3.420891374764174     -2.700316898505457      1.244307687439109
C       4.872744620112120     -2.913929580283360      1.677195405163100
C       4.907762851710014     -3.782579682252270      2.936211180999590
C       6.359616097057960     -3.996192364030173      3.369098898723581
H       1.910196608857519     -0.999673537114331     -1.344890580482271
H       1.472902479722723     -2.582728114157877     -0.659432539508019
H       3.848114901347941     -0.867454449000263      0.196779750145867
H       3.934479919405932     -2.329434684080265     -0.814306572134188
H       2.959402007414768     -3.665076895659888      1.033675990598325
H       2.873036989356778     -2.203096660579886      2.044762312878380
H       5.334986378293783     -1.949717232747076      1.888683243706349
H       5.421351396351774     -3.411697467827078      0.877596921426294
H       4.446273484360610     -4.747339679406702      2.725579484158807
H       4.359908466302619     -3.285359444326699      3.736665806438861
H       6.384563726104826     -4.615034593537436      4.266044778241081
H       6.821857855239623     -3.031980016493890      3.580586737266829
H       6.908222873297615     -4.493960251573892      2.569500414986775
