30

Cr      0.569319448324121      0.333163199544688     -1.997164571343529
O      -0.508755757906119     -0.407601620669766     -0.731691801646656
O       0.184790805563139      2.103115968576432     -1.818825236665905
Si     -2.054674364932838      0.071882491881327     -0.892844620255126
Si     -0.716189596357410      3.431496014264303     -2.226093023581031
O      -3.014721717032927     -1.128074620614080     -0.336749655405425
O      -2.375167232813036      0.464901220876943     -2.448162808766765
O      -2.418439636181974      1.402599047243214     -0.031509162416595
O      -2.257239225920513      3.467981252964121     -1.685994597126809
O      -0.819638654129669      3.435830531919574     -3.827253126264007
O       0.087581544386587      4.677091185267658     -1.613930374029398
H      -3.968204027662947     -1.194657975179081     -0.426405331246439
H      -2.989275881736463      0.541316387596583     -3.182077851270086
H      -2.797190780757386      2.255613385434761     -0.256262603597042
H      -2.733518260709881      3.106404482890655     -0.934981600992024
H      -0.498534043063176      3.101668785305038     -4.667983615690528
H       0.897020405595156      4.983337995383110     -1.198452791891099
C       0.104926102439468     -0.338550690893471     -3.844741165071239
C       1.345647540238680     -0.960228555969282     -4.488967015111609
C       0.993904065385453     -1.469001948231847     -5.888369088578637
C       2.234625503184665     -2.090679813307659     -6.532594938619008
H      -0.243855396663868      0.492936753032917     -4.457178995774072
H      -0.681149525798664     -1.090117824010629     -3.771720954799820
H       1.694878882438591     -1.792288033978994     -3.877563306683655
H       2.132173011573387     -0.209233456935447     -4.563021347657906
H       0.645122566282117     -0.637514504305459     -6.500806919281469
H       0.207828437147321     -2.220569081349006     -5.815348878307218
H       1.984037014563738     -2.453139288841121     -7.529554585729504
H       2.583856845384576     -2.922739291317370     -5.921191230191052
H       3.021150974519372     -1.339684714273824     -6.606649271165304
