36

Cr      0.917335780383380     -0.695585185549184      1.034228906858765
O       0.152773969490546      0.849905430251157      0.451730843516618
O      -0.540772593978712     -1.660812158995041      1.538864278535867
Si     -0.748206432430003      2.178285475939028      0.044463056601492
Si     -2.086691201005431     -1.181328046443948      1.377711459927397
O      -0.851655490202262      2.182619993594299     -1.556697046081484
O       0.055564708313995      3.423880646942383      0.656625706153125
O      -2.289256061993106      2.214770714638846      0.584561483055714
O      -2.450456472254567      0.149388508917939      2.239046917765927
O      -3.046738553105520     -2.381285158939355      1.933806424777098
O      -2.407184068885629     -0.788309317448332     -0.177606728584242
H      -0.530550879135769      1.848458246979763     -2.397427535508005
H       0.865003569522563      3.730127457057834      1.072103288291424
H      -2.765535096782474      1.853193944565379      1.335574479190499
H      -2.829207616829979      1.002402847109486      2.014293476585481
H      -4.000220863735540     -2.447868513504357      1.844150748936083
H      -3.021292717809056     -0.711894150728692     -0.911521771087563
C       2.469193390855367     -0.516568894237808      2.437685754882706
C       3.321747751880566     -1.116594603808079      1.595830536123797
C       2.272365159556578     -1.633490872018806     -0.267396348299356
C       3.245804094159977     -2.318594853841577     -1.228619098076319
C       2.516006200407387     -2.678072713097221     -2.524408704061512
C       3.489445135010785     -3.363176694919990     -3.485631453838474
H       2.197144495629272     -1.046489026738883      3.350524213634474
H       2.833245061689527      0.484073804211314      2.670667666204842
H       3.710301813019078     -2.024459574992400      2.057248931584209
H       4.147595942153874     -0.441404997948854      1.371790890609957
H       1.883934386333896     -0.726154483037422     -0.729956843417401
H       1.446640257199100     -2.309209060080969     -0.044498802443149
H       3.634358155298488     -3.226459825025900     -0.767200702615908
H       4.071652284433285     -1.643405247982352     -1.452658743590159
H       2.127575427184704     -1.770736324115835     -2.986969199179557
H       1.690281298049908     -3.353790901159382     -2.301511158205305
H       2.969523759722990     -3.619275300533488     -4.408775682939036
H       3.877999196149296     -4.271041666104314     -3.024213058378064
H       4.315293325284093     -2.687987089060766     -3.709671099352315
