30

Cr      0.949352616455973      0.557625352776091     -1.236327173323758
O      -0.508755757906119     -0.407601620669766     -0.731691801646656
O       0.184790805563139      2.103115968576432     -1.818825236665905
Si     -2.054674364932838      0.071882491881327     -0.892844620255126
Si     -0.716189596357410      3.431496014264303     -2.226093023581031
O      -3.014721717032927     -1.128074620614080     -0.336749655405425
O      -2.375167232813036      0.464901220876943     -2.448162808766765
O      -2.418439636181974      1.402599047243214     -0.031509162416595
O      -2.257239225920513      3.467981252964121     -1.685994597126809
O      -0.819638654129669      3.435830531919574     -3.827253126264007
O       0.087581544386587      4.677091185267658     -1.613930374029398
H      -3.968204027662947     -1.194657975179081     -0.426405331246439
H      -2.989275881736463      0.541316387596583     -3.182077851270086
H      -2.797190780757386      2.255613385434761     -0.256262603597042
H      -2.733518260709881      3.106404482890655     -0.934981600992024
H      -0.498534043063176      3.101668785305038     -4.667983615690528
H       0.897020405595156      4.983337995383110     -1.198452791891099
C       1.966036733890925     -0.364843576433369     -2.718151886303895
C       3.417889979238873     -0.578456258211272     -2.285264168579904
C       4.187952701850495     -1.277157971919427     -3.407636352173769
C       5.639805947198442     -1.490770653697330     -2.974748634449778
H       1.942213444930112      0.253537001210944     -3.615446660664793
H       1.504919315795316     -1.329517575832603     -2.929988619690541
H       3.442837608285739     -1.197298487718535     -1.388318289062404
H       3.880131737420535      0.385756089325012     -2.073776330036656
H       4.164129412889682     -0.658777394275115     -4.304931126534668
H       3.726835283754885     -2.241831971318661     -3.619473085560416
H       6.188412723438095     -1.988538541241049     -3.774347118186585
H       5.664753576245308     -2.109612883204593     -2.077802754932279
H       6.102047705380104     -0.526558306161047     -2.763260795906531
