36

Cr      0.569319448324121      0.333163199544688     -1.997164571343529
O      -0.508755757906119     -0.407601620669766     -0.731691801646656
O       0.184790805563139      2.103115968576432     -1.818825236665905
Si     -2.054674364932838      0.071882491881327     -0.892844620255126
Si     -0.716189596357410      3.431496014264303     -2.226093023581031
O      -3.014721717032927     -1.128074620614080     -0.336749655405425
O      -2.375167232813036      0.464901220876943     -2.448162808766765
O      -2.418439636181974      1.402599047243214     -0.031509162416595
O      -2.257239225920513      3.467981252964121     -1.685994597126809
O      -0.819638654129669      3.435830531919574     -3.827253126264007
O       0.087581544386587      4.677091185267658     -1.613930374029398
H      -3.968204027662947     -1.194657975179081     -0.426405331246439
H      -2.989275881736463      0.541316387596583     -3.182077851270086
H      -2.797190780757386      2.255613385434761     -0.256262603597042
H      -2.733518260709881      3.106404482890655     -0.934981600992024
H      -0.498534043063176      3.101668785305038     -4.667983615690528
H       0.897020405595156      4.983337995383110     -1.198452791891099
C       2.581946277648199     -0.184398929644864     -1.908492770224546
C       2.499370105616562     -0.696558782428982     -3.143998116634974
C       0.410652619686409     -0.453847533980247     -3.915976428406798
C       0.316367885948794     -1.038627067383009     -5.326665368711244
C      -1.110300753994570     -0.872846616433650     -5.853954126305391
C      -1.204585487732185     -1.457626149836410     -7.264643066609834
H       2.745118286457343     -0.869615269631992     -1.076655368471154
H       3.320639062556774      0.617031734265900     -1.896582251026521
H       2.755282669965117     -1.755738317008934     -3.116658165363208
H       3.192576799099914     -0.172683739965388     -3.802116206337458
H       0.153970418289601      0.605119977520879     -3.944297040533001
H      -0.283323710845194     -0.977934599522667     -3.258838999558749
H       0.572280450297349     -2.097806601962959     -5.299325417439475
H       1.009574579432144     -0.514752024919414     -5.984783458413727
H      -1.366982955391378      0.186120895067476     -5.882274738431592
H      -1.804277084526175     -1.396933681976070     -5.196816697457342
H      -2.220970335796411     -1.339521122689482     -7.640293227248803
H      -0.948672923383629     -2.516805684416363     -7.237303115338069
H      -0.511378794248833     -0.933751107372816     -7.922761156312317
