33

Cr      1.674170779878934     -1.386504496807593      1.567921347713890
O       0.353753820895119     -0.186193718068961      1.209936587044115
O       2.510305057391297     -0.988803267386050      3.134801433133790
O       1.241356580591849      1.091369211069515      3.055697041862986
Si      0.296404508976256      1.358671442661765      1.730702120920718
Si      1.593884179946266     -0.106180460032584      4.135317528499794
O      -1.085960014711456      2.033741084799431      2.256824898719845
O       1.027312948039785      2.444627230633684      0.752273438387207
O       1.993586702795154      0.608709493480075      5.554749911910991
O       0.268768668551699     -1.007456939928178      4.346467830102933
H      -2.003100286013965      1.800829206744733      2.418706892209530
H       0.906927258543011      2.950555941947789     -0.054661146837912
H       2.663508187252762      0.812185549906802      6.211562441574626
H      -0.278131534015387     -1.366835574460333      5.048854593555864
C       1.045016689384931     -3.365418754151249      1.447657086619116
C       1.885280021782123     -3.564901779731140      0.423077145992588
C       2.987772382753243     -1.666096243469303     -0.020373109911867
C       3.947177530938097     -1.893864175661268     -1.190229310776484
C       4.700219188208550     -0.596912179910996     -1.493121673068367
C       5.659624336393404     -0.824680112102961     -2.662977873932984
H      -0.026243339139999     -3.395173443008769      1.248617869941195
H       1.302776484360290     -4.039230828144074      2.264747765207330
H       1.319624356326021     -3.870076050157305     -0.457265022034862
H       2.598923776465111     -4.346196400864897      0.684594461651467
H       3.554294585295522     -1.360380941555284      0.859223813799367
H       2.274995165156432     -0.884260590847694     -0.282635669886963
H       3.381521865481995     -2.199038446087433     -2.070571478803935
H       4.660821285621086     -2.675158796795026     -0.928711995117606
H       5.266741390750829     -0.291196877996977     -0.613524749357132
H       3.987441970611737      0.184923472710612     -1.755384233043461
H       6.196104994187387      0.099292224738736     -2.878763935957920
H       5.093968670937302     -1.129854382529128     -3.543320041960434
H       6.373268091076394     -1.605974733236719     -2.401460558274104
