33

Cr      1.674170779878934     -1.386504496807593      1.567921347713890
O       0.353753820895119     -0.186193718068961      1.209936587044115
O       2.510305057391297     -0.988803267386050      3.134801433133790
O       1.241356580591849      1.091369211069515      3.055697041862986
Si      0.296404508976256      1.358671442661765      1.730702120920718
Si      1.593884179946266     -0.106180460032584      4.135317528499794
O      -1.085960014711456      2.033741084799431      2.256824898719845
O       1.027312948039785      2.444627230633684      0.752273438387207
O       1.993586702795154      0.608709493480075      5.554749911910991
O       0.268768668551699     -1.007456939928178      4.346467830102933
H      -2.003100286013965      1.800829206744733      2.418706892209530
H       0.906927258543011      2.950555941947789     -0.054661146837912
H       2.663508187252762      0.812185549906802      6.211562441574626
H      -0.278131534015387     -1.366835574460333      5.048854593555864
C       3.342187367441553     -1.336811300043327     -0.280145547669311
C       4.305446919743179     -1.695310232071627      0.579627416917410
C       0.868762011769318     -3.234293512421256      1.699801861929007
C       1.486418573647499     -4.138126575315614      0.630930416904943
C       0.876381239386256     -5.537689542587349      0.730820113315403
C       1.494037801264437     -6.441522605481707     -0.338051331708661
H       3.125764857109070     -0.281641098470646     -0.447110043100090
H       2.775062928513758     -2.100366698697466     -0.812548612984447
H       4.872571358670974     -0.931754833417488      1.112030482232547
H       4.521869430075662     -2.750480433644308      0.746591912348190
H      -0.208512190690768     -3.173525075835137      1.545246079672678
H       1.070787229448323     -3.649645426542728      2.687105563359008
H       2.563696631610294     -4.200060582755047      0.784995872326985
H       1.284397211471204     -3.723940232047457     -0.356863611359344
H      -0.200892963073830     -5.476921106001231      0.576264331059074
H       1.078406457065261     -5.953041456708821      1.718123814745403
H       1.059436040254793     -7.438596876283139     -0.266888083939118
H       2.571315859227232     -6.503456612921140     -0.183985876286619
H       1.292016439088141     -6.027336262213550     -1.325845359972948
